
  SciTegic03142313312D

 21 22  0  0  1  0            999 V2000
    3.6834  -15.0051    0.0000 C   0  0
    3.0783  -13.6325    0.0000 C   0  0
    3.9641  -12.4210    0.0000 C   0  0
    3.3587  -11.0477    0.0000 C   0  0
    4.2445   -9.8362    0.0000 C   0  0
    3.6391   -8.4629    0.0000 C   0  0
    4.5250   -7.2514    0.0000 C   0  0
    3.9195   -5.8781    0.0000 N   0  0
    4.8054   -4.6666    0.0000 C   0  0
    6.2966   -4.8284    0.0000 O   0  0
    4.2010   -3.2956    0.0000 C   0  0  1  0  0  0
    4.9531   -1.9978    0.0000 C   0  0
    3.9511   -0.8815    0.0000 S   0  0
    2.5987   -1.5004    0.0000 C   0  0  3  0  0  0
    1.2990   -0.7500    0.0000 C   0  0
    1.2990    0.7500    0.0000 C   0  0
    0.0000    1.5000    0.0000 C   0  0
   -1.2990    0.7500    0.0000 C   0  0
   -1.2990   -0.7500    0.0000 C   0  0
    0.0000   -1.5000    0.0000 C   0  0
    2.7343   -2.9815    0.0000 N   0  0
  1  2  1  0
  2  3  1  0
  3  4  1  0
  4  5  1  0
  5  6  1  0
  6  7  1  0
  7  8  1  0
  8  9  1  0
  9 10  2  0
 11  9  1  6
 11 12  1  0
 12 13  1  0
 13 14  1  0
 14 15  1  4
 15 16  2  0
 16 17  1  0
 17 18  2  0
 18 19  1  0
 19 20  2  0
 20 15  1  0
 14 21  1  0
 21 11  1  0
M  END
> <assay_chembl_id>
CHEMBL825133

> <assay_description>
Antiproliferative activity against prostate cancer PPC-1 cell line using sulforhodamine B(SRB) assay

> <document_journal>
J Med Chem

> <molecule_chembl_id>
CHEMBL535598

> <standard_value>
34700

> <IC50_uM>
34.7

> <Activity>
No

> <RemovedSalts>
HCl

> <Canonical_Smiles>
CCCCCCCNC(=O)[C@H]1CSC(c2ccccc2)N1.Cl

$$$$

  SciTegic03142313312D

 36 37  0  0  1  0            999 V2000
    1.3963  -29.1408    0.0000 C   0  0
    2.2816  -27.9299    0.0000 C   0  0
    1.6762  -26.5566    0.0000 C   0  0
    2.5620  -25.3451    0.0000 C   0  0
    1.9566  -23.9718    0.0000 C   0  0
    2.8425  -22.7603    0.0000 C   0  0
    2.2370  -21.3870    0.0000 C   0  0
    3.1229  -20.1755    0.0000 C   0  0
    2.5175  -18.8022    0.0000 C   0  0
    3.4033  -17.5907    0.0000 C   0  0
    2.7979  -16.2174    0.0000 C   0  0
    3.6837  -15.0058    0.0000 C   0  0
    3.0783  -13.6325    0.0000 C   0  0
    3.9641  -12.4210    0.0000 C   0  0
    3.3587  -11.0477    0.0000 C   0  0
    4.2445   -9.8362    0.0000 C   0  0
    3.6391   -8.4629    0.0000 C   0  0
    4.5250   -7.2514    0.0000 C   0  0
    3.9195   -5.8781    0.0000 N   0  0
    4.8054   -4.6666    0.0000 C   0  0
    6.2966   -4.8284    0.0000 O   0  0
    4.2010   -3.2956    0.0000 C   0  0  1  0  0  0
    4.9531   -1.9978    0.0000 C   0  0
    3.9511   -0.8815    0.0000 S   0  0
    2.5987   -1.5004    0.0000 C   0  0  3  0  0  0
    1.2990   -0.7500    0.0000 C   0  0
    1.2990    0.7500    0.0000 C   0  0
    0.0000    1.5000    0.0000 C   0  0
   -1.2990    0.7500    0.0000 C   0  0
   -2.5973    1.5031    0.0000 O   0  0
   -2.5951    3.0031    0.0000 C   0  0
   -1.2990   -0.7500    0.0000 C   0  0
   -2.5972   -1.5031    0.0000 O   0  0
   -2.5951   -3.0031    0.0000 C   0  0
    0.0000   -1.5000    0.0000 C   0  0
    2.7343   -2.9815    0.0000 N   0  0
  1  2  1  0
  2  3  1  0
  3  4  1  0
  4  5  1  0
  5  6  1  0
  6  7  1  0
  7  8  1  0
  8  9  1  0
  9 10  1  0
 10 11  1  0
 11 12  1  0
 12 13  1  0
 13 14  1  0
 14 15  1  0
 15 16  1  0
 16 17  1  0
 17 18  1  0
 18 19  1  0
 19 20  1  0
 20 21  2  0
 22 20  1  6
 22 23  1  0
 23 24  1  0
 24 25  1  0
 25 26  1  4
 26 27  2  0
 27 28  1  0
 28 29  2  0
 29 30  1  0
 30 31  1  0
 29 32  1  0
 32 33  1  0
 33 34  1  0
 32 35  2  0
 35 26  1  0
 25 36  1  0
 36 22  1  0
M  END
> <assay_chembl_id>
CHEMBL825133

> <assay_description>
Antiproliferative activity against prostate cancer PPC-1 cell line using sulforhodamine B(SRB) assay

> <document_journal>
J Med Chem

> <molecule_chembl_id>
CHEMBL540876

> <standard_value>
580

> <IC50_uM>
0.58

> <Activity>
Yes

> <RemovedSalts>
HCl

> <Canonical_Smiles>
CCCCCCCCCCCCCCCCCCNC(=O)[C@H]1CSC(c2ccc(OC)c(OC)c2)N1.Cl

$$$$

  SciTegic03142313312D

 38 39  0  0  1  0            999 V2000
    1.3963  -29.1408    0.0000 C   0  0
    2.2816  -27.9299    0.0000 C   0  0
    1.6762  -26.5566    0.0000 C   0  0
    2.5620  -25.3451    0.0000 C   0  0
    1.9566  -23.9718    0.0000 C   0  0
    2.8425  -22.7603    0.0000 C   0  0
    2.2370  -21.3870    0.0000 C   0  0
    3.1229  -20.1755    0.0000 C   0  0
    2.5175  -18.8022    0.0000 C   0  0
    3.4033  -17.5907    0.0000 C   0  0
    2.7979  -16.2174    0.0000 C   0  0
    3.6837  -15.0058    0.0000 C   0  0
    3.0783  -13.6325    0.0000 C   0  0
    3.9641  -12.4210    0.0000 C   0  0
    3.3587  -11.0477    0.0000 C   0  0
    4.2445   -9.8362    0.0000 C   0  0
    3.6391   -8.4629    0.0000 C   0  0
    4.5250   -7.2514    0.0000 C   0  0
    3.9195   -5.8781    0.0000 N   0  0
    4.8054   -4.6666    0.0000 C   0  0
    6.2966   -4.8284    0.0000 O   0  0
    4.2010   -3.2956    0.0000 C   0  0  1  0  0  0
    4.9531   -1.9978    0.0000 C   0  0
    3.9511   -0.8815    0.0000 S   0  0
    2.5987   -1.5004    0.0000 C   0  0  3  0  0  0
    1.2990   -0.7500    0.0000 C   0  0
    1.2990    0.7500    0.0000 C   0  0
    0.0000    1.5000    0.0000 C   0  0
    0.0031    3.0008    0.0000 O   0  0
    1.3032    3.7490    0.0000 C   0  0
   -1.2990    0.7500    0.0000 C   0  0
   -2.6003    1.4977    0.0000 O   0  0
   -3.8983    0.7459    0.0000 C   0  0
   -1.2990   -0.7500    0.0000 C   0  0
   -2.5972   -1.5031    0.0000 O   0  0
   -2.5951   -3.0031    0.0000 C   0  0
    0.0000   -1.5000    0.0000 C   0  0
    2.7343   -2.9815    0.0000 N   0  0
  1  2  1  0
  2  3  1  0
  3  4  1  0
  4  5  1  0
  5  6  1  0
  6  7  1  0
  7  8  1  0
  8  9  1  0
  9 10  1  0
 10 11  1  0
 11 12  1  0
 12 13  1  0
 13 14  1  0
 14 15  1  0
 15 16  1  0
 16 17  1  0
 17 18  1  0
 18 19  1  0
 19 20  1  0
 20 21  2  0
 22 20  1  6
 22 23  1  0
 23 24  1  0
 24 25  1  0
 25 26  1  4
 26 27  2  0
 27 28  1  0
 28 29  1  0
 29 30  1  0
 28 31  2  0
 31 32  1  0
 32 33  1  0
 31 34  1  0
 34 35  1  0
 35 36  1  0
 34 37  2  0
 37 26  1  0
 25 38  1  0
 38 22  1  0
M  END
> <assay_chembl_id>
CHEMBL825133

> <assay_description>
Antiproliferative activity against prostate cancer PPC-1 cell line using sulforhodamine B(SRB) assay

> <document_journal>
J Med Chem

> <molecule_chembl_id>
CHEMBL556756

> <standard_value>
480

> <IC50_uM>
0.48

> <Activity>
Yes

> <RemovedSalts>
HCl

> <Canonical_Smiles>
CCCCCCCCCCCCCCCCCCNC(=O)[C@H]1CSC(c2cc(OC)c(OC)c(OC)c2)N1.Cl

$$$$

  SciTegic03142313312D

 36 37  0  0  1  0            999 V2000
    1.3963  -29.1408    0.0000 C   0  0
    2.2816  -27.9299    0.0000 C   0  0
    1.6762  -26.5566    0.0000 C   0  0
    2.5620  -25.3451    0.0000 C   0  0
    1.9566  -23.9718    0.0000 C   0  0
    2.8425  -22.7603    0.0000 C   0  0
    2.2370  -21.3870    0.0000 C   0  0
    3.1229  -20.1755    0.0000 C   0  0
    2.5175  -18.8022    0.0000 C   0  0
    3.4033  -17.5907    0.0000 C   0  0
    2.7979  -16.2174    0.0000 C   0  0
    3.6837  -15.0058    0.0000 C   0  0
    3.0783  -13.6325    0.0000 C   0  0
    3.9641  -12.4210    0.0000 C   0  0
    3.3587  -11.0477    0.0000 C   0  0
    4.2445   -9.8362    0.0000 C   0  0
    3.6391   -8.4629    0.0000 C   0  0
    4.5250   -7.2514    0.0000 C   0  0
    3.9195   -5.8781    0.0000 N   0  0
    4.8054   -4.6666    0.0000 C   0  0
    6.2966   -4.8284    0.0000 O   0  0
    4.2010   -3.2956    0.0000 C   0  0  1  0  0  0
    4.9531   -1.9978    0.0000 C   0  0
    3.9511   -0.8815    0.0000 S   0  0
    2.5987   -1.5004    0.0000 C   0  0  3  0  0  0
    1.2990   -0.7500    0.0000 C   0  0
    1.2990    0.7500    0.0000 C   0  0
    0.0000    1.5000    0.0000 C   0  0
   -1.2990    0.7500    0.0000 C   0  0
   -2.6003    1.4977    0.0000 N   0  0
   -3.8990    0.7455    0.0000 C   0  0
   -3.8964   -0.7545    0.0000 C   0  0
   -5.1996    1.4928    0.0000 O   0  0
   -1.2990   -0.7500    0.0000 C   0  0
    0.0000   -1.5000    0.0000 C   0  0
    2.7343   -2.9815    0.0000 N   0  0
  1  2  1  0
  2  3  1  0
  3  4  1  0
  4  5  1  0
  5  6  1  0
  6  7  1  0
  7  8  1  0
  8  9  1  0
  9 10  1  0
 10 11  1  0
 11 12  1  0
 12 13  1  0
 13 14  1  0
 14 15  1  0
 15 16  1  0
 16 17  1  0
 17 18  1  0
 18 19  1  0
 19 20  1  0
 20 21  2  0
 22 20  1  6
 22 23  1  0
 23 24  1  0
 24 25  1  0
 25 26  1  4
 26 27  2  0
 27 28  1  0
 28 29  2  0
 29 30  1  0
 30 31  1  0
 31 32  1  0
 31 33  2  0
 29 34  1  0
 34 35  2  0
 35 26  1  0
 25 36  1  0
 36 22  1  0
M  END
> <assay_chembl_id>
CHEMBL825133

> <assay_description>
Antiproliferative activity against prostate cancer PPC-1 cell line using sulforhodamine B(SRB) assay

> <document_journal>
J Med Chem

> <molecule_chembl_id>
CHEMBL556956

> <standard_value>
550

> <IC50_uM>
0.55

> <Activity>
Yes

> <RemovedSalts>
HCl

> <Canonical_Smiles>
CCCCCCCCCCCCCCCCCCNC(=O)[C@H]1CSC(c2ccc(NC(C)=O)cc2)N1.Cl

$$$$

  SciTegic03142313312D

 62 68  0  0  1  0            999 V2000
   -2.5378  -11.6641    0.0000 C   0  0
   -4.0148  -11.9258    0.0000 C   0  0
   -4.5262  -13.3359    0.0000 O   0  0
   -4.9801  -10.7766    0.0000 O   0  0
   -4.9817   -9.2754    0.0000 C   0  0  1  0  0  0
   -3.7152  -10.0114    0.0000 C   0  0
   -2.4168   -9.2604    0.0000 O   0  0
   -3.7088  -11.4849    0.0000 C   0  0  1  0  0  0
   -2.4103  -10.7339    0.0000 C   0  0
   -4.9652  -12.2088    0.0000 C   0  0  2  0  0  0
   -6.2367  -11.4641    0.0000 C   0  0  2  0  0  0
   -7.5385  -12.2118    0.0000 O   0  0
   -9.0161  -11.9490    0.0000 C   0  0
   -9.5265  -10.5385    0.0000 O   0  0
   -9.9833  -13.0966    0.0000 C   0  0
  -11.4605  -12.8361    0.0000 C   0  0
  -12.4248  -13.9850    0.0000 C   0  0
  -11.9119  -15.3946    0.0000 C   0  0
  -10.4347  -15.6553    0.0000 C   0  0
   -9.4704  -14.5063    0.0000 C   0  0
   -6.2382   -9.9992    0.0000 C   0  0  2  0  0  0
   -7.5379  -10.7480    0.0000 O   0  0
   -7.5047   -9.2632    0.0000 C   0  0
   -7.5111   -7.7897    0.0000 C   0  0  2  0  0  0
   -8.8107   -7.0384    0.0000 O   0  0
   -8.8110   -5.5375    0.0000 C   0  0
   -7.5118   -4.7877    0.0000 O   0  0
  -10.1104   -4.7865    0.0000 C   0  0  2  0  0  0
  -11.4095   -5.5363    0.0000 O   0  0
  -10.1106   -3.2857    0.0000 C   0  0  1  0  0  0
  -11.4100   -2.5347    0.0000 N   0  0
  -11.4103   -1.0339    0.0000 C   0  0
  -10.1111   -0.2840    0.0000 O   0  0
  -12.7097   -0.2828    0.0000 C   0  0
  -14.0107   -1.0295    0.0000 C   0  0
  -15.3078   -0.2763    0.0000 C   0  0
  -15.3041    1.2237    0.0000 C   0  0
  -14.0032    1.9705    0.0000 C   0  0
  -12.7060    1.2172    0.0000 C   0  0
   -8.8108   -2.5355    0.0000 C   0  0
   -8.8085   -1.0354    0.0000 C   0  0
   -7.5083   -0.2874    0.0000 C   0  0
   -6.2104   -1.0394    0.0000 C   0  0
   -6.2126   -2.5394    0.0000 C   0  0
   -7.5128   -3.2874    0.0000 C   0  0
   -6.2547   -7.0658    0.0000 C   0  0
   -6.2493   -5.5658    0.0000 C   0  0
   -4.9832   -7.8105    0.0000 C   0  0
   -7.8612   -9.8263    0.0000 C   0  0
   -8.2894  -11.2639    0.0000 C   0  0
   -8.9317   -8.7756    0.0000 C   0  0
   -4.9638  -13.6736    0.0000 C   0  0  2  0  0  0
   -6.4578  -13.6704    0.0000 O   0  0
   -7.2091  -14.9696    0.0000 C   0  0
   -6.4596  -16.2690    0.0000 C   0  0
   -8.7091  -14.9696    0.0000 O   0  0
   -5.6911  -14.9351    0.0000 C   0  0
   -4.4333  -15.6762    0.0000 O   0  0
   -3.6923  -14.4183    0.0000 C   0  0  2  0  0  0
   -2.4359  -13.6945    0.0000 C   0  0
   -2.4423  -12.2210    0.0000 C   0  0  2  0  0  0
   -1.1438  -11.4700    0.0000 O   0  0
  1  2  1  0
  2  3  2  0
  2  4  1  0
  5  4  1  6
  5  6  1  0
  6  7  2  0
  6  8  1  0
  8  9  1  1
 10  8  1  1
 10 11  1  0
 11 12  1  6
 12 13  1  0
 13 14  2  0
 13 15  1  0
 15 16  2  0
 16 17  1  0
 17 18  2  0
 18 19  1  0
 19 20  2  0
 20 15  1  0
 11 21  1  0
 21 22  1  6
 21 23  1  0
 23 24  1  0
 24 25  1  6
 25 26  1  0
 26 27  2  0
 26 28  1  0
 28 29  1  6
 28 30  1  0
 30 31  1  1
 31 32  1  0
 32 33  2  0
 32 34  1  0
 34 35  2  0
 35 36  1  0
 36 37  2  0
 37 38  1  0
 38 39  2  0
 39 34  1  0
 30 40  1  0
 40 41  2  0
 41 42  1  0
 42 43  2  0
 43 44  1  0
 44 45  2  0
 45 40  1  0
 24 46  1  0
 46 47  1  0
 46 48  2  0
 48  5  1  0
 48 49  1  0
 49 21  1  0
 49 50  1  0
 49 51  1  0
 10 52  1  0
 52 53  1  6
 53 54  1  0
 54 55  1  0
 54 56  2  0
 52 57  1  0
 57 58  1  0
 59 58  1  1
 59 52  1  0
 59 60  1  0
 60 61  1  0
 61  8  1  0
 61 62  1  1
M  END
> <assay_chembl_id>
CHEMBL825133

> <assay_description>
Antiproliferative activity against prostate cancer PPC-1 cell line using sulforhodamine B(SRB) assay

> <document_journal>
J Med Chem

> <molecule_chembl_id>
CHEMBL428647

> <standard_value>
3.4

> <IC50_uM>
0.0034

> <Activity>
Yes

> <Canonical_Smiles>
CC(=O)O[C@H]1C(=O)[C@@]2(C)[C@H]([C@H](OC(=O)c3ccccc3)[C@]3(O)C[C@H](OC(=O)[C@H](O)[C@@H](NC(=O)c4ccccc4)c4ccccc4)C(C)=C1C3(C)C)[C@]1(OC(C)=O)CO[C@@H]1C[C@@H]2O

$$$$

  SciTegic03142313312D

 33 35  0  0  1  0            999 V2000
    2.5981   -1.5000    0.0000 N   0  0
    1.2990   -0.7500    0.0000 C   0  0
    1.2990    0.7500    0.0000 N   0  0
    0.0000    1.5000    0.0000 C   0  0
    0.0000    3.0000    0.0000 N   0  0
   -1.2991    3.7500    0.0000 C   0  0
   -2.5981    3.0000    0.0000 C   0  0
   -3.8994    3.7477    0.0000 C   0  0
   -5.1981    2.9954    0.0000 N   0  0
   -6.4994    3.7432    0.0000 C   0  0
   -7.7985    2.9932    0.0000 C   0  0
   -9.0975    3.7432    0.0000 C   0  0
   -9.0976    5.2432    0.0000 C   0  0
  -10.3958    5.9962    0.0000 C   0  0
  -11.6961    5.2484    0.0000 O   0  0
  -10.3937    7.4970    0.0000 N   0  0
  -11.6919    8.2501    0.0000 C   0  0  1  0  0  0
  -11.6899    9.7509    0.0000 C   0  0
  -12.9881   10.5040    0.0000 C   0  0
  -12.9860   12.0048    0.0000 C   0  0
  -11.6857   12.7526    0.0000 O   0  0
  -14.2842   12.7578    0.0000 N   0  0
  -14.2821   14.2578    0.0000 O   0  0
  -12.9945    7.5046    0.0000 C   0  0
  -14.2912    8.2586    0.0000 O   0  0
  -12.9997    6.0046    0.0000 O   0  0
   -7.7986    5.9932    0.0000 C   0  0
   -6.4995    5.2432    0.0000 C   0  0
   -2.5981    1.5000    0.0000 N   0  0
   -1.2990    0.7500    0.0000 C   0  0
   -1.2990   -0.7500    0.0000 C   0  0
   -2.5981   -1.5000    0.0000 O   0  0
    0.0000   -1.5000    0.0000 N   0  0
  1  2  1  0
  2  3  2  0
  3  4  1  0
  4  5  2  0
  5  6  1  0
  6  7  2  0
  7  8  1  0
  8  9  1  0
  9 10  1  0
 10 11  2  0
 11 12  1  0
 12 13  2  0
 13 14  1  0
 14 15  2  0
 14 16  1  0
 17 16  1  6
 17 18  1  0
 18 19  1  0
 19 20  1  0
 20 21  2  0
 20 22  1  0
 22 23  1  0
 17 24  1  0
 24 25  2  0
 24 26  1  0
 13 27  1  0
 27 28  2  0
 28 10  1  0
  7 29  1  0
 29 30  2  0
 30  4  1  0
 30 31  1  0
 31 32  2  0
 31 33  1  0
 33  2  1  0
M  END
> <assay_chembl_id>
CHEMBL891308

> <assay_description>
Antiproliferative activity against PPC1 cells after 72 hrs by MTT assay

> <document_journal>
Bioorg Med Chem

> <molecule_chembl_id>
CHEMBL396294

> <standard_value>
80000

> <IC50_uM>
80

> <Activity>
No

> <Canonical_Smiles>
Nc1nc2ncc(CNc3ccc(C(=O)N[C@@H](CCC(=O)NO)C(=O)O)cc3)nc2c(=O)[nH]1

$$$$

  SciTegic03142313312D

 33 35  0  0  1  0            999 V2000
    1.2948   -3.7516    0.0000 C   0  0
    2.5951   -3.0039    0.0000 N   0  0
    2.5973   -1.5031    0.0000 C   0  0
    1.2990   -0.7500    0.0000 C   0  0
    1.2990    0.7500    0.0000 C   0  0
    0.0000    1.5000    0.0000 N   0  0
   -1.2990    0.7500    0.0000 C   0  0
   -2.5981    1.5000    0.0000 N   0  0
   -3.8971    0.7500    0.0000 C   0  0
   -5.1962    1.5000    0.0000 N   0  0
   -3.8971   -0.7500    0.0000 N   0  0
   -2.5981   -1.5000    0.0000 C   0  0
   -2.5981   -3.0000    0.0000 N   0  0
   -1.2990   -0.7500    0.0000 C   0  0
    0.0000   -1.5000    0.0000 N   0  0
    3.8933   -3.7570    0.0000 C   0  0
    3.8934   -5.2570    0.0000 C   0  0
    5.1924   -6.0070    0.0000 C   0  0
    6.4915   -5.2571    0.0000 C   0  0
    7.7928   -6.0048    0.0000 C   0  0
    7.7953   -7.5048    0.0000 O   0  0
    9.0914   -5.2526    0.0000 N   0  0
   10.3927   -6.0004    0.0000 C   0  0  1  0  0  0
   11.6914   -5.2481    0.0000 C   0  0
   12.9927   -5.9959    0.0000 C   0  0
   14.2914   -5.2437    0.0000 C   0  0
   15.5920   -5.9910    0.0000 O   0  0
   14.2888   -3.7437    0.0000 O   0  0
   10.3984   -7.5012    0.0000 C   0  0
   11.6998   -8.2471    0.0000 O   0  0
    9.1020   -8.2557    0.0000 O   0  0
    6.4915   -3.7571    0.0000 C   0  0
    5.1925   -3.0070    0.0000 C   0  0
  1  2  1  0
  2  3  1  0
  3  4  1  0
  4  5  2  0
  5  6  1  0
  6  7  2  0
  7  8  1  0
  8  9  2  0
  9 10  1  0
  9 11  1  0
 11 12  2  0
 12 13  1  0
 12 14  1  0
 14  7  1  0
 14 15  2  0
 15  4  1  0
  2 16  1  0
 16 17  2  0
 17 18  1  0
 18 19  2  0
 19 20  1  0
 20 21  2  0
 20 22  1  0
 23 22  1  1
 23 24  1  0
 24 25  1  0
 25 26  1  0
 26 27  2  0
 26 28  1  0
 23 29  1  0
 29 30  2  0
 29 31  1  0
 19 32  1  0
 32 33  2  0
 33 16  1  0
M  END
> <assay_chembl_id>
CHEMBL891308

> <assay_description>
Antiproliferative activity against PPC1 cells after 72 hrs by MTT assay

> <document_journal>
Bioorg Med Chem

> <molecule_chembl_id>
CHEMBL34259

> <standard_value>
100

> <IC50_uM>
0.1

> <Activity>
Yes

> <Canonical_Smiles>
CN(Cc1cnc2nc(N)nc(N)c2n1)c1ccc(C(=O)N[C@@H](CCC(=O)O)C(=O)O)cc1

$$$$

  SciTegic03142313312D

 44 47  0  0  1  0            999 V2000
    2.5981   -1.5000    0.0000 N   0  0
    1.2990   -0.7500    0.0000 C   0  0
    1.2990    0.7500    0.0000 N   0  0
    0.0000    1.5000    0.0000 C   0  0
    0.0000    3.0000    0.0000 N   0  0
   -1.2991    3.7500    0.0000 C   0  0
   -2.5981    3.0000    0.0000 C   0  0
   -3.8994    3.7477    0.0000 C   0  0
   -5.1981    2.9954    0.0000 N   0  0
   -6.4994    3.7432    0.0000 C   0  0
   -7.7985    2.9932    0.0000 C   0  0
   -9.0975    3.7432    0.0000 C   0  0
   -9.0976    5.2432    0.0000 C   0  0
  -10.3958    5.9962    0.0000 C   0  0
  -11.6961    5.2484    0.0000 O   0  0
  -10.3937    7.4970    0.0000 N   0  0
  -11.6919    8.2501    0.0000 C   0  0  1  0  0  0
  -11.6899    9.7509    0.0000 C   0  0
  -12.9881   10.5040    0.0000 C   0  0
  -12.9860   12.0048    0.0000 C   0  0
  -11.6857   12.7526    0.0000 O   0  0
  -14.2842   12.7578    0.0000 N   0  0
  -14.2821   14.2586    0.0000 C   0  0  1  0  0  0
  -15.5803   15.0117    0.0000 C   0  0
  -15.5783   16.5125    0.0000 C   0  0
  -16.8747   17.2671    0.0000 C   0  0
  -16.8696   18.7671    0.0000 C   0  0
  -15.5679   19.5126    0.0000 C   0  0
  -14.2715   18.7581    0.0000 C   0  0
  -14.2766   17.2581    0.0000 C   0  0
  -12.9826   15.0095    0.0000 C   0  0
  -11.6836   14.2595    0.0000 O   0  0
  -12.9822   16.5103    0.0000 N   0  0
  -11.6834   17.2608    0.0000 O   0  0
  -12.9945    7.5046    0.0000 C   0  0
  -14.2912    8.2586    0.0000 O   0  0
  -12.9997    6.0046    0.0000 O   0  0
   -7.7986    5.9932    0.0000 C   0  0
   -6.4995    5.2432    0.0000 C   0  0
   -2.5981    1.5000    0.0000 N   0  0
   -1.2990    0.7500    0.0000 C   0  0
   -1.2990   -0.7500    0.0000 C   0  0
   -2.5981   -1.5000    0.0000 O   0  0
    0.0000   -1.5000    0.0000 N   0  0
  1  2  1  0
  2  3  2  0
  3  4  1  0
  4  5  2  0
  5  6  1  0
  6  7  2  0
  7  8  1  0
  8  9  1  0
  9 10  1  0
 10 11  2  0
 11 12  1  0
 12 13  2  0
 13 14  1  0
 14 15  2  0
 14 16  1  0
 17 16  1  6
 17 18  1  0
 18 19  1  0
 19 20  1  0
 20 21  2  0
 20 22  1  0
 23 22  1  1
 23 24  1  0
 24 25  1  0
 25 26  2  0
 26 27  1  0
 27 28  2  0
 28 29  1  0
 29 30  2  0
 30 25  1  0
 23 31  1  0
 31 32  2  0
 31 33  1  0
 33 34  1  0
 17 35  1  0
 35 36  2  0
 35 37  1  0
 13 38  1  0
 38 39  2  0
 39 10  1  0
  7 40  1  0
 40 41  2  0
 41  4  1  0
 41 42  1  0
 42 43  2  0
 42 44  1  0
 44  2  1  0
M  END
> <assay_chembl_id>
CHEMBL891308

> <assay_description>
Antiproliferative activity against PPC1 cells after 72 hrs by MTT assay

> <document_journal>
Bioorg Med Chem

> <molecule_chembl_id>
CHEMBL267603

> <standard_value>
70000

> <IC50_uM>
70

> <Activity>
No

> <Canonical_Smiles>
Nc1nc2ncc(CNc3ccc(C(=O)N[C@@H](CCC(=O)N[C@@H](Cc4ccccc4)C(=O)NO)C(=O)O)cc3)nc2c(=O)[nH]1

$$$$

  SciTegic03142313312D

 34 36  0  0  1  0            999 V2000
    1.2948   -3.7516    0.0000 C   0  0
    2.5951   -3.0039    0.0000 N   0  0
    2.5973   -1.5031    0.0000 C   0  0
    1.2990   -0.7500    0.0000 C   0  0
    1.2990    0.7500    0.0000 C   0  0
    0.0000    1.5000    0.0000 N   0  0
   -1.2990    0.7500    0.0000 C   0  0
   -2.5981    1.5000    0.0000 N   0  0
   -3.8971    0.7500    0.0000 C   0  0
   -5.1962    1.5000    0.0000 N   0  0
   -3.8971   -0.7500    0.0000 N   0  0
   -2.5981   -1.5000    0.0000 C   0  0
   -2.5981   -3.0000    0.0000 N   0  0
   -1.2990   -0.7500    0.0000 C   0  0
    0.0000   -1.5000    0.0000 N   0  0
    3.8933   -3.7570    0.0000 C   0  0
    3.8934   -5.2570    0.0000 C   0  0
    5.1924   -6.0070    0.0000 C   0  0
    6.4915   -5.2571    0.0000 C   0  0
    7.7928   -6.0048    0.0000 C   0  0
    7.7953   -7.5048    0.0000 O   0  0
    9.0914   -5.2526    0.0000 N   0  0
   10.3927   -6.0004    0.0000 C   0  0  1  0  0  0
   11.6914   -5.2481    0.0000 C   0  0
   12.9927   -5.9959    0.0000 C   0  0
   14.2914   -5.2437    0.0000 C   0  0
   14.2888   -3.7437    0.0000 O   0  0
   15.5927   -5.9914    0.0000 N   0  0
   16.8907   -5.2396    0.0000 O   0  0
   10.3984   -7.5012    0.0000 C   0  0
   11.6998   -8.2471    0.0000 O   0  0
    9.1020   -8.2557    0.0000 O   0  0
    6.4915   -3.7571    0.0000 C   0  0
    5.1925   -3.0070    0.0000 C   0  0
  1  2  1  0
  2  3  1  0
  3  4  1  0
  4  5  2  0
  5  6  1  0
  6  7  2  0
  7  8  1  0
  8  9  2  0
  9 10  1  0
  9 11  1  0
 11 12  2  0
 12 13  1  0
 12 14  1  0
 14  7  1  0
 14 15  2  0
 15  4  1  0
  2 16  1  0
 16 17  2  0
 17 18  1  0
 18 19  2  0
 19 20  1  0
 20 21  2  0
 20 22  1  0
 23 22  1  1
 23 24  1  0
 24 25  1  0
 25 26  1  0
 26 27  2  0
 26 28  1  0
 28 29  1  0
 23 30  1  0
 30 31  2  0
 30 32  1  0
 19 33  1  0
 33 34  2  0
 34 16  1  0
M  END
> <assay_chembl_id>
CHEMBL891313

> <assay_description>
Antiproliferative activity against PPC1 cells after 72 hrs in folate depleted media

> <document_journal>
Bioorg Med Chem

> <molecule_chembl_id>
CHEMBL244883

> <standard_value>
50

> <IC50_uM>
0.05

> <Activity>
Yes

> <Canonical_Smiles>
CN(Cc1cnc2nc(N)nc(N)c2n1)c1ccc(C(=O)N[C@@H](CCC(=O)NO)C(=O)O)cc1

$$$$

  SciTegic03142313312D

 41 44  0  0  1  0            999 V2000
    1.2948   -3.7516    0.0000 C   0  0
    2.5951   -3.0039    0.0000 N   0  0
    2.5973   -1.5031    0.0000 C   0  0
    1.2990   -0.7500    0.0000 C   0  0
    1.2990    0.7500    0.0000 C   0  0
    0.0000    1.5000    0.0000 N   0  0
   -1.2990    0.7500    0.0000 C   0  0
   -2.5981    1.5000    0.0000 N   0  0
   -3.8971    0.7500    0.0000 C   0  0
   -5.1962    1.5000    0.0000 N   0  0
   -3.8971   -0.7500    0.0000 N   0  0
   -2.5981   -1.5000    0.0000 C   0  0
   -2.5981   -3.0000    0.0000 N   0  0
   -1.2990   -0.7500    0.0000 C   0  0
    0.0000   -1.5000    0.0000 N   0  0
    3.8933   -3.7570    0.0000 C   0  0
    3.8934   -5.2570    0.0000 C   0  0
    5.1924   -6.0070    0.0000 C   0  0
    6.4915   -5.2571    0.0000 C   0  0
    7.7928   -6.0048    0.0000 C   0  0
    7.7953   -7.5048    0.0000 O   0  0
    9.0914   -5.2526    0.0000 N   0  0
   10.3927   -6.0004    0.0000 C   0  0  1  0  0  0
   11.6914   -5.2481    0.0000 C   0  0
   12.9927   -5.9959    0.0000 C   0  0
   14.2914   -5.2437    0.0000 C   0  0
   14.2888   -3.7437    0.0000 O   0  0
   15.5927   -5.9914    0.0000 N   0  0
   15.7305   -7.4723    0.0000 C   0  0
   17.1977   -7.7842    0.0000 C   0  0
   17.9478   -6.4852    0.0000 C   0  0
   16.9441   -5.3704    0.0000 C   0  0  1  0  0  0
   17.2413   -3.9020    0.0000 C   0  0
   18.6634   -3.4250    0.0000 O   0  0
   16.1168   -2.9080    0.0000 N   0  0
   16.4143   -1.4378    0.0000 O   0  0
   10.3984   -7.5012    0.0000 C   0  0
   11.6998   -8.2471    0.0000 O   0  0
    9.1020   -8.2557    0.0000 O   0  0
    6.4915   -3.7571    0.0000 C   0  0
    5.1925   -3.0070    0.0000 C   0  0
  1  2  1  0
  2  3  1  0
  3  4  1  0
  4  5  2  0
  5  6  1  0
  6  7  2  0
  7  8  1  0
  8  9  2  0
  9 10  1  0
  9 11  1  0
 11 12  2  0
 12 13  1  0
 12 14  1  0
 14  7  1  0
 14 15  2  0
 15  4  1  0
  2 16  1  0
 16 17  2  0
 17 18  1  0
 18 19  2  0
 19 20  1  0
 20 21  2  0
 20 22  1  0
 23 22  1  1
 23 24  1  0
 24 25  1  0
 25 26  1  0
 26 27  2  0
 26 28  1  0
 28 29  1  0
 29 30  1  0
 30 31  1  0
 31 32  1  0
 32 28  1  0
 32 33  1  6
 33 34  2  0
 33 35  1  0
 35 36  1  0
 23 37  1  0
 37 38  2  0
 37 39  1  0
 19 40  1  0
 40 41  2  0
 41 16  1  0
M  END
> <assay_chembl_id>
CHEMBL891313

> <assay_description>
Antiproliferative activity against PPC1 cells after 72 hrs in folate depleted media

> <document_journal>
Bioorg Med Chem

> <molecule_chembl_id>
CHEMBL388879

> <standard_value>
200

> <IC50_uM>
0.2

> <Activity>
Yes

> <Canonical_Smiles>
CN(Cc1cnc2nc(N)nc(N)c2n1)c1ccc(C(=O)N[C@@H](CCC(=O)N2CCC[C@H]2C(=O)NO)C(=O)O)cc1

$$$$

  SciTegic03142313312D

 45 48  0  0  1  0            999 V2000
    1.2948   -3.7516    0.0000 C   0  0
    2.5951   -3.0039    0.0000 N   0  0
    2.5973   -1.5031    0.0000 C   0  0
    1.2990   -0.7500    0.0000 C   0  0
    1.2990    0.7500    0.0000 C   0  0
    0.0000    1.5000    0.0000 N   0  0
   -1.2990    0.7500    0.0000 C   0  0
   -2.5981    1.5000    0.0000 N   0  0
   -3.8971    0.7500    0.0000 C   0  0
   -5.1962    1.5000    0.0000 N   0  0
   -3.8971   -0.7500    0.0000 N   0  0
   -2.5981   -1.5000    0.0000 C   0  0
   -2.5981   -3.0000    0.0000 N   0  0
   -1.2990   -0.7500    0.0000 C   0  0
    0.0000   -1.5000    0.0000 N   0  0
    3.8933   -3.7570    0.0000 C   0  0
    3.8934   -5.2570    0.0000 C   0  0
    5.1924   -6.0070    0.0000 C   0  0
    6.4915   -5.2571    0.0000 C   0  0
    7.7928   -6.0048    0.0000 C   0  0
    7.7953   -7.5048    0.0000 O   0  0
    9.0914   -5.2526    0.0000 N   0  0
   10.3927   -6.0004    0.0000 C   0  0  1  0  0  0
   11.6914   -5.2481    0.0000 C   0  0
   12.9927   -5.9959    0.0000 C   0  0
   14.2914   -5.2437    0.0000 C   0  0
   14.2888   -3.7437    0.0000 O   0  0
   15.5927   -5.9914    0.0000 N   0  0
   16.8914   -5.2392    0.0000 C   0  0  1  0  0  0
   18.1927   -5.9870    0.0000 C   0  0
   19.4914   -5.2347    0.0000 C   0  0
   20.7930   -5.9802    0.0000 C   0  0
   22.0895   -5.2257    0.0000 C   0  0
   22.0843   -3.7257    0.0000 C   0  0
   20.7827   -2.9802    0.0000 C   0  0
   19.4863   -3.7347    0.0000 C   0  0
   16.8919   -3.7384    0.0000 C   0  0
   15.5929   -2.9883    0.0000 O   0  0
   18.1914   -2.9876    0.0000 N   0  0
   18.1919   -1.4876    0.0000 O   0  0
   10.3984   -7.5012    0.0000 C   0  0
   11.6998   -8.2471    0.0000 O   0  0
    9.1020   -8.2557    0.0000 O   0  0
    6.4915   -3.7571    0.0000 C   0  0
    5.1925   -3.0070    0.0000 C   0  0
  1  2  1  0
  2  3  1  0
  3  4  1  0
  4  5  2  0
  5  6  1  0
  6  7  2  0
  7  8  1  0
  8  9  2  0
  9 10  1  0
  9 11  1  0
 11 12  2  0
 12 13  1  0
 12 14  1  0
 14  7  1  0
 14 15  2  0
 15  4  1  0
  2 16  1  0
 16 17  2  0
 17 18  1  0
 18 19  2  0
 19 20  1  0
 20 21  2  0
 20 22  1  0
 23 22  1  1
 23 24  1  0
 24 25  1  0
 25 26  1  0
 26 27  2  0
 26 28  1  0
 29 28  1  6
 29 30  1  0
 30 31  1  0
 31 32  2  0
 32 33  1  0
 33 34  2  0
 34 35  1  0
 35 36  2  0
 36 31  1  0
 29 37  1  0
 37 38  2  0
 37 39  1  0
 39 40  1  0
 23 41  1  0
 41 42  2  0
 41 43  1  0
 19 44  1  0
 44 45  2  0
 45 16  1  0
M  END
> <assay_chembl_id>
CHEMBL891313

> <assay_description>
Antiproliferative activity against PPC1 cells after 72 hrs in folate depleted media

> <document_journal>
Bioorg Med Chem

> <molecule_chembl_id>
CHEMBL396296

> <standard_value>
500

> <IC50_uM>
0.5

> <Activity>
Yes

> <Canonical_Smiles>
CN(Cc1cnc2nc(N)nc(N)c2n1)c1ccc(C(=O)N[C@@H](CCC(=O)N[C@@H](Cc2ccccc2)C(=O)NO)C(=O)O)cc1

$$$$

  SciTegic03142313312D

 34 35  0  0  1  0            999 V2000
    1.6767  -26.5560    0.0000 C   0  0
    2.5620  -25.3451    0.0000 C   0  0
    1.9566  -23.9718    0.0000 C   0  0
    2.8425  -22.7603    0.0000 C   0  0
    2.2370  -21.3870    0.0000 C   0  0
    3.1229  -20.1755    0.0000 C   0  0
    2.5175  -18.8022    0.0000 C   0  0
    3.4033  -17.5907    0.0000 C   0  0
    2.7979  -16.2174    0.0000 C   0  0
    3.6837  -15.0058    0.0000 C   0  0
    3.0783  -13.6325    0.0000 C   0  0
    3.9641  -12.4210    0.0000 C   0  0
    3.3587  -11.0477    0.0000 C   0  0
    4.2445   -9.8362    0.0000 C   0  0
    3.6391   -8.4629    0.0000 C   0  0
    4.5250   -7.2514    0.0000 C   0  0
    3.9195   -5.8781    0.0000 N   0  0
    4.8054   -4.6666    0.0000 C   0  0
    6.2966   -4.8284    0.0000 O   0  0
    4.2010   -3.2956    0.0000 C   0  0  2  0  0  0
    4.9531   -1.9978    0.0000 C   0  0
    3.9511   -0.8815    0.0000 S   0  0
    2.5987   -1.5004    0.0000 C   0  0  3  0  0  0
    1.2990   -0.7500    0.0000 C   0  0
    1.2990    0.7500    0.0000 C   0  0
    0.0000    1.5000    0.0000 C   0  0
   -1.2990    0.7500    0.0000 C   0  0
   -2.6003    1.4977    0.0000 N   0  0
   -3.8990    0.7455    0.0000 C   0  0
   -3.8964   -0.7545    0.0000 C   0  0
   -5.1996    1.4928    0.0000 O   0  0
   -1.2990   -0.7500    0.0000 C   0  0
    0.0000   -1.5000    0.0000 C   0  0
    2.7343   -2.9815    0.0000 N   0  0
  1  2  1  0
  2  3  1  0
  3  4  1  0
  4  5  1  0
  5  6  1  0
  6  7  1  0
  7  8  1  0
  8  9  1  0
  9 10  1  0
 10 11  1  0
 11 12  1  0
 12 13  1  0
 13 14  1  0
 14 15  1  0
 15 16  1  0
 16 17  1  0
 17 18  1  0
 18 19  2  0
 20 18  1  1
 20 21  1  0
 21 22  1  0
 22 23  1  0
 23 24  1  4
 24 25  2  0
 25 26  1  0
 26 27  2  0
 27 28  1  0
 28 29  1  0
 29 30  1  0
 29 31  2  0
 27 32  1  0
 32 33  2  0
 33 24  1  0
 23 34  1  0
 34 20  1  0
M  END
> <assay_chembl_id>
CHEMBL1010707

> <assay_description>
Cytotoxicity against human PPC1 cells after 48 hrs by SRB assay

> <document_journal>
J Med Chem

> <molecule_chembl_id>
CHEMBL236918

> <standard_value>
400

> <IC50_uM>
0.4

> <Activity>
Yes

> <Canonical_Smiles>
CCCCCCCCCCCCCCCCNC(=O)[C@@H]1CSC(c2ccc(NC(C)=O)cc2)N1

$$$$

  SciTegic03142313312D

 26 28  0  0  0  0            999 V2000
    3.8983   -0.7459    0.0000 C   0  0
    2.6003   -1.4977    0.0000 O   0  0
    1.2990   -0.7500    0.0000 C   0  0
    1.2990    0.7500    0.0000 C   0  0
    0.0000    1.5000    0.0000 C   0  0
   -0.0031    3.0008    0.0000 C   0  0
    1.2946    3.7531    0.0000 O   0  0
   -1.3039    3.7494    0.0000 C   0  0
   -1.4470    5.2297    0.0000 C   0  0
   -2.9153    5.5365    0.0000 S   0  0
   -3.6607    4.2349    0.0000 C   0  0
   -5.1527    4.0728    0.0000 C   0  0
   -6.1233    5.2100    0.0000 C   0  0
   -7.5981    4.9362    0.0000 C   0  0
   -8.0984    3.5221    0.0000 C   0  0
   -9.5732    3.2484    0.0000 N   0  0
   -7.1240    2.3818    0.0000 C   0  0
   -5.6491    2.6555    0.0000 C   0  0
   -2.6532    3.1236    0.0000 N   0  0
   -1.2990    0.7500    0.0000 C   0  0
   -1.2990   -0.7500    0.0000 C   0  0
   -2.6003   -1.4978    0.0000 O   0  0
   -3.8983   -0.7459    0.0000 C   0  0
    0.0000   -1.5000    0.0000 C   0  0
    0.0031   -3.0008    0.0000 O   0  0
    1.3032   -3.7490    0.0000 C   0  0
  1  2  1  0
  2  3  1  0
  3  4  2  0
  4  5  1  0
  5  6  1  0
  6  7  2  0
  6  8  1  0
  8  9  2  0
  9 10  1  0
 10 11  1  0
 11 12  1  0
 12 13  2  0
 13 14  1  0
 14 15  2  0
 15 16  1  0
 15 17  1  0
 17 18  2  0
 18 12  1  0
 11 19  2  0
 19  8  1  0
  5 20  2  0
 20 21  1  0
 21 22  1  0
 22 23  1  0
 21 24  2  0
 24  3  1  0
 24 25  1  0
 25 26  1  0
M  END
> <assay_chembl_id>
CHEMBL1010707

> <assay_description>
Cytotoxicity against human PPC1 cells after 48 hrs by SRB assay

> <document_journal>
J Med Chem

> <molecule_chembl_id>
CHEMBL511796

> <standard_value>
15

> <IC50_uM>
0.015

> <Activity>
Yes

> <RemovedSalts>
HCl

> <Canonical_Smiles>
COc1cc(C(=O)c2csc(-c3ccc(N)cc3)n2)cc(OC)c1OC.Cl

$$$$

  SciTegic03142313312D

 24 26  0  0  0  0            999 V2000
    3.8983   -0.7459    0.0000 C   0  0
    2.6003   -1.4977    0.0000 O   0  0
    1.2990   -0.7500    0.0000 C   0  0
    1.2990    0.7500    0.0000 C   0  0
    0.0000    1.5000    0.0000 C   0  0
   -0.0031    3.0008    0.0000 C   0  0
    1.2946    3.7531    0.0000 O   0  0
   -1.3039    3.7494    0.0000 C   0  0
   -1.4470    5.2297    0.0000 C   0  0
   -2.9153    5.5365    0.0000 S   0  0
   -3.6607    4.2349    0.0000 C   0  0
   -5.1527    4.0728    0.0000 C   0  0
   -6.2187    5.1030    0.0000 C   0  0
   -7.5346    4.3830    0.0000 C   0  0
   -7.2565    2.9090    0.0000 C   0  0
   -5.7687    2.7181    0.0000 S   0  0
   -2.6532    3.1236    0.0000 N   0  0
   -1.2990    0.7500    0.0000 C   0  0
   -1.2990   -0.7500    0.0000 C   0  0
   -2.6003   -1.4978    0.0000 O   0  0
   -3.8983   -0.7459    0.0000 C   0  0
    0.0000   -1.5000    0.0000 C   0  0
    0.0031   -3.0008    0.0000 O   0  0
    1.3032   -3.7490    0.0000 C   0  0
  1  2  1  0
  2  3  1  0
  3  4  2  0
  4  5  1  0
  5  6  1  0
  6  7  2  0
  6  8  1  0
  8  9  2  0
  9 10  1  0
 10 11  1  0
 11 12  1  0
 12 13  2  0
 13 14  1  0
 14 15  2  0
 15 16  1  0
 16 12  1  0
 11 17  2  0
 17  8  1  0
  5 18  2  0
 18 19  1  0
 19 20  1  0
 20 21  1  0
 19 22  2  0
 22  3  1  0
 22 23  1  0
 23 24  1  0
M  END
> <assay_chembl_id>
CHEMBL1010707

> <assay_description>
Cytotoxicity against human PPC1 cells after 48 hrs by SRB assay

> <document_journal>
J Med Chem

> <molecule_chembl_id>
CHEMBL510476

> <standard_value>
13

> <IC50_uM>
0.013

> <Activity>
Yes

> <Canonical_Smiles>
COc1cc(C(=O)c2csc(-c3cccs3)n2)cc(OC)c1OC

$$$$

  SciTegic03142313312D

 27 29  0  0  0  0            999 V2000
    2.5951   -3.0031    0.0000 C   0  0
    2.5973   -1.5031    0.0000 C   0  0
    1.2990   -0.7500    0.0000 C   0  0
    1.2990    0.7500    0.0000 C   0  0
    0.0000    1.5000    0.0000 C   0  0
   -1.2990    0.7500    0.0000 C   0  0
   -2.5987    1.5004    0.0000 C   0  0
   -2.7390    2.9810    0.0000 N   0  0
   -4.2067    3.2905    0.0000 C   0  0
   -4.8211    4.6570    0.0000 C   0  0
   -3.9435    5.8735    0.0000 O   0  0
   -6.3142    4.8094    0.0000 C   0  0
   -6.9313    6.1766    0.0000 C   0  0
   -8.4239    6.3258    0.0000 C   0  0
   -9.0384    7.6950    0.0000 O   0  0
   -8.1612    8.9118    0.0000 C   0  0
   -9.2994    5.1078    0.0000 C   0  0
  -10.7931    5.2541    0.0000 O   0  0
  -11.6669    4.0348    0.0000 C   0  0
   -8.6823    3.7406    0.0000 C   0  0
   -9.5558    2.5202    0.0000 O   0  0
   -8.9369    1.1538    0.0000 C   0  0
   -7.1898    3.5914    0.0000 C   0  0
   -4.9546    1.9903    0.0000 C   0  0
   -3.9492    0.8772    0.0000 S   0  0
   -1.2990   -0.7500    0.0000 C   0  0
    0.0000   -1.5000    0.0000 C   0  0
  1  2  1  0
  2  3  1  0
  3  4  2  0
  4  5  1  0
  5  6  2  0
  6  7  1  0
  7  8  2  0
  8  9  1  0
  9 10  1  0
 10 11  2  0
 10 12  1  0
 12 13  2  0
 13 14  1  0
 14 15  1  0
 15 16  1  0
 14 17  2  0
 17 18  1  0
 18 19  1  0
 17 20  1  0
 20 21  1  0
 21 22  1  0
 20 23  2  0
 23 12  1  0
  9 24  2  0
 24 25  1  0
 25  7  1  0
  6 26  1  0
 26 27  2  0
 27  3  1  0
M  END
> <assay_chembl_id>
CHEMBL1010707

> <assay_description>
Cytotoxicity against human PPC1 cells after 48 hrs by SRB assay

> <document_journal>
J Med Chem

> <molecule_chembl_id>
CHEMBL459993

> <standard_value>
22

> <IC50_uM>
0.022

> <Activity>
Yes

> <Canonical_Smiles>
CCc1ccc(-c2nc(C(=O)c3cc(OC)c(OC)c(OC)c3)cs2)cc1

$$$$

  SciTegic03142313312D

 26 28  0  0  0  0            999 V2000
    3.8983   -0.7459    0.0000 C   0  0
    2.6003   -1.4977    0.0000 O   0  0
    1.2990   -0.7500    0.0000 C   0  0
    1.2990    0.7500    0.0000 C   0  0
    0.0000    1.5000    0.0000 C   0  0
   -0.0031    3.0008    0.0000 C   0  0
    1.2946    3.7531    0.0000 O   0  0
   -1.3039    3.7494    0.0000 C   0  0
   -1.4470    5.2297    0.0000 C   0  0
   -2.9153    5.5365    0.0000 S   0  0
   -3.6607    4.2349    0.0000 C   0  0
   -5.1527    4.0728    0.0000 C   0  0
   -6.1233    5.2100    0.0000 C   0  0
   -7.5981    4.9362    0.0000 C   0  0
   -8.0984    3.5221    0.0000 C   0  0
   -9.5732    3.2484    0.0000 Br  0  0
   -7.1240    2.3818    0.0000 C   0  0
   -5.6491    2.6555    0.0000 C   0  0
   -2.6532    3.1236    0.0000 N   0  0
   -1.2990    0.7500    0.0000 C   0  0
   -1.2990   -0.7500    0.0000 C   0  0
   -2.6003   -1.4978    0.0000 O   0  0
   -3.8983   -0.7459    0.0000 C   0  0
    0.0000   -1.5000    0.0000 C   0  0
    0.0031   -3.0008    0.0000 O   0  0
    1.3032   -3.7490    0.0000 C   0  0
  1  2  1  0
  2  3  1  0
  3  4  2  0
  4  5  1  0
  5  6  1  0
  6  7  2  0
  6  8  1  0
  8  9  2  0
  9 10  1  0
 10 11  1  0
 11 12  1  0
 12 13  2  0
 13 14  1  0
 14 15  2  0
 15 16  1  0
 15 17  1  0
 17 18  2  0
 18 12  1  0
 11 19  2  0
 19  8  1  0
  5 20  2  0
 20 21  1  0
 21 22  1  0
 22 23  1  0
 21 24  2  0
 24  3  1  0
 24 25  1  0
 25 26  1  0
M  END
> <assay_chembl_id>
CHEMBL1010707

> <assay_description>
Cytotoxicity against human PPC1 cells after 48 hrs by SRB assay

> <document_journal>
J Med Chem

> <molecule_chembl_id>
CHEMBL459992

> <standard_value>
21

> <IC50_uM>
0.021

> <Activity>
Yes

> <Canonical_Smiles>
COc1cc(C(=O)c2csc(-c3ccc(Br)cc3)n2)cc(OC)c1OC

$$$$

  SciTegic03142313312D

 29 31  0  0  0  0            999 V2000
    3.8983   -0.7459    0.0000 C   0  0
    2.6003   -1.4977    0.0000 O   0  0
    1.2990   -0.7500    0.0000 C   0  0
    1.2990    0.7500    0.0000 C   0  0
    0.0000    1.5000    0.0000 C   0  0
   -0.0031    3.0008    0.0000 C   0  0
    1.2946    3.7531    0.0000 O   0  0
   -1.3039    3.7494    0.0000 C   0  0
   -1.4470    5.2297    0.0000 C   0  0
   -2.9153    5.5365    0.0000 S   0  0
   -3.6607    4.2349    0.0000 C   0  0
   -5.1527    4.0728    0.0000 C   0  0
   -6.1233    5.2100    0.0000 C   0  0
   -7.5981    4.9362    0.0000 C   0  0
   -8.0984    3.5221    0.0000 C   0  0
   -9.5740    3.2482    0.0000 C   0  0
  -10.5492    4.3880    0.0000 F   0  0
  -10.0739    1.8340    0.0000 F   0  0
  -11.0487    2.9738    0.0000 F   0  0
   -7.1240    2.3818    0.0000 C   0  0
   -5.6491    2.6555    0.0000 C   0  0
   -2.6532    3.1236    0.0000 N   0  0
   -1.2990    0.7500    0.0000 C   0  0
   -1.2990   -0.7500    0.0000 C   0  0
   -2.6003   -1.4978    0.0000 O   0  0
   -3.8983   -0.7459    0.0000 C   0  0
    0.0000   -1.5000    0.0000 C   0  0
    0.0031   -3.0008    0.0000 O   0  0
    1.3032   -3.7490    0.0000 C   0  0
  1  2  1  0
  2  3  1  0
  3  4  2  0
  4  5  1  0
  5  6  1  0
  6  7  2  0
  6  8  1  0
  8  9  2  0
  9 10  1  0
 10 11  1  0
 11 12  1  0
 12 13  2  0
 13 14  1  0
 14 15  2  0
 15 16  1  0
 16 17  1  0
 16 18  1  0
 16 19  1  0
 15 20  1  0
 20 21  2  0
 21 12  1  0
 11 22  2  0
 22  8  1  0
  5 23  2  0
 23 24  1  0
 24 25  1  0
 25 26  1  0
 24 27  2  0
 27  3  1  0
 27 28  1  0
 28 29  1  0
M  END
> <assay_chembl_id>
CHEMBL1010707

> <assay_description>
Cytotoxicity against human PPC1 cells after 48 hrs by SRB assay

> <document_journal>
J Med Chem

> <molecule_chembl_id>
CHEMBL459775

> <standard_value>
76

> <IC50_uM>
0.076

> <Activity>
Yes

> <Canonical_Smiles>
COc1cc(C(=O)c2csc(-c3ccc(C(F)(F)F)cc3)n2)cc(OC)c1OC

$$$$

  SciTegic03142313312D

 27 29  0  0  0  0            999 V2000
    3.8983   -0.7459    0.0000 C   0  0
    2.6003   -1.4977    0.0000 O   0  0
    1.2990   -0.7500    0.0000 C   0  0
    1.2990    0.7500    0.0000 C   0  0
    0.0000    1.5000    0.0000 C   0  0
   -0.0031    3.0008    0.0000 C   0  0
    1.2946    3.7531    0.0000 O   0  0
   -1.3039    3.7494    0.0000 C   0  0
   -1.4470    5.2297    0.0000 C   0  0
   -2.9153    5.5365    0.0000 S   0  0
   -3.6607    4.2349    0.0000 C   0  0
   -5.1527    4.0728    0.0000 C   0  0
   -6.1233    5.2100    0.0000 C   0  0
   -7.5981    4.9362    0.0000 C   0  0
   -8.0984    3.5221    0.0000 C   0  0
   -9.5740    3.2482    0.0000 C   0  0
  -11.0489    2.9745    0.0000 N   0  0
   -7.1240    2.3818    0.0000 C   0  0
   -5.6491    2.6555    0.0000 C   0  0
   -2.6532    3.1236    0.0000 N   0  0
   -1.2990    0.7500    0.0000 C   0  0
   -1.2990   -0.7500    0.0000 C   0  0
   -2.6003   -1.4978    0.0000 O   0  0
   -3.8983   -0.7459    0.0000 C   0  0
    0.0000   -1.5000    0.0000 C   0  0
    0.0031   -3.0008    0.0000 O   0  0
    1.3032   -3.7490    0.0000 C   0  0
  1  2  1  0
  2  3  1  0
  3  4  2  0
  4  5  1  0
  5  6  1  0
  6  7  2  0
  6  8  1  0
  8  9  2  0
  9 10  1  0
 10 11  1  0
 11 12  1  0
 12 13  2  0
 13 14  1  0
 14 15  2  0
 15 16  1  0
 16 17  3  0
 15 18  1  0
 18 19  2  0
 19 12  1  0
 11 20  2  0
 20  8  1  0
  5 21  2  0
 21 22  1  0
 22 23  1  0
 23 24  1  0
 22 25  2  0
 25  3  1  0
 25 26  1  0
 26 27  1  0
M  END
> <assay_chembl_id>
CHEMBL1010707

> <assay_description>
Cytotoxicity against human PPC1 cells after 48 hrs by SRB assay

> <document_journal>
J Med Chem

> <molecule_chembl_id>
CHEMBL517098

> <standard_value>
19

> <IC50_uM>
0.019

> <Activity>
Yes

> <Canonical_Smiles>
COc1cc(C(=O)c2csc(-c3ccc(C#N)cc3)n2)cc(OC)c1OC

$$$$

  SciTegic03142313312D

 28 30  0  0  0  0            999 V2000
    3.8983   -0.7459    0.0000 C   0  0
    2.6003   -1.4977    0.0000 O   0  0
    1.2990   -0.7500    0.0000 C   0  0
    1.2990    0.7500    0.0000 C   0  0
    0.0000    1.5000    0.0000 C   0  0
   -0.0031    3.0008    0.0000 C   0  0
    1.2946    3.7531    0.0000 O   0  0
   -1.3039    3.7494    0.0000 C   0  0
   -1.4470    5.2297    0.0000 C   0  0
   -2.9153    5.5365    0.0000 S   0  0
   -3.6607    4.2349    0.0000 C   0  0
   -5.1527    4.0728    0.0000 C   0  0
   -6.1233    5.2100    0.0000 C   0  0
   -7.5981    4.9362    0.0000 C   0  0
   -8.0984    3.5221    0.0000 C   0  0
   -9.5735    3.2452    0.0000 N   0  3
  -10.0718    1.8304    0.0000 O   0  0
  -10.5499    4.3839    0.0000 O   0  5
   -7.1240    2.3818    0.0000 C   0  0
   -5.6491    2.6555    0.0000 C   0  0
   -2.6532    3.1236    0.0000 N   0  0
   -1.2990    0.7500    0.0000 C   0  0
   -1.2990   -0.7500    0.0000 C   0  0
   -2.6003   -1.4978    0.0000 O   0  0
   -3.8983   -0.7459    0.0000 C   0  0
    0.0000   -1.5000    0.0000 C   0  0
    0.0031   -3.0008    0.0000 O   0  0
    1.3032   -3.7490    0.0000 C   0  0
  1  2  1  0
  2  3  1  0
  3  4  2  0
  4  5  1  0
  5  6  1  0
  6  7  2  0
  6  8  1  0
  8  9  2  0
  9 10  1  0
 10 11  1  0
 11 12  1  0
 12 13  2  0
 13 14  1  0
 14 15  2  0
 15 16  1  0
 16 17  2  0
 16 18  1  0
 15 19  1  0
 19 20  2  0
 20 12  1  0
 11 21  2  0
 21  8  1  0
  5 22  2  0
 22 23  1  0
 23 24  1  0
 24 25  1  0
 23 26  2  0
 26  3  1  0
 26 27  1  0
 27 28  1  0
M  CHG  2  16   1  18  -1
M  END
> <assay_chembl_id>
CHEMBL1010707

> <assay_description>
Cytotoxicity against human PPC1 cells after 48 hrs by SRB assay

> <document_journal>
J Med Chem

> <molecule_chembl_id>
CHEMBL459774

> <standard_value>
34

> <IC50_uM>
0.034

> <Activity>
Yes

> <Canonical_Smiles>
COc1cc(C(=O)c2csc(-c3ccc([N+](=O)[O-])cc3)n2)cc(OC)c1OC

$$$$

  SciTegic03142313312D

 29 31  0  0  0  0            999 V2000
    3.8983   -0.7459    0.0000 C   0  0
    2.6003   -1.4977    0.0000 O   0  0
    1.2990   -0.7500    0.0000 C   0  0
    1.2990    0.7500    0.0000 C   0  0
    0.0000    1.5000    0.0000 C   0  0
   -1.2990    0.7500    0.0000 C   0  0
   -2.5987    1.5004    0.0000 C   0  0
   -2.7390    2.9810    0.0000 N   0  0
   -4.2067    3.2905    0.0000 C   0  0
   -4.8211    4.6570    0.0000 C   0  0
   -3.9435    5.8735    0.0000 O   0  0
   -6.3142    4.8094    0.0000 C   0  0
   -6.9313    6.1766    0.0000 C   0  0
   -8.4239    6.3258    0.0000 C   0  0
   -9.0384    7.6950    0.0000 O   0  0
   -8.1612    8.9118    0.0000 C   0  0
   -9.2994    5.1078    0.0000 C   0  0
  -10.7931    5.2541    0.0000 O   0  0
  -11.6669    4.0348    0.0000 C   0  0
   -8.6823    3.7406    0.0000 C   0  0
   -9.5558    2.5202    0.0000 O   0  0
   -8.9369    1.1538    0.0000 C   0  0
   -7.1898    3.5914    0.0000 C   0  0
   -4.9546    1.9903    0.0000 C   0  0
   -3.9492    0.8772    0.0000 S   0  0
   -1.2990   -0.7500    0.0000 C   0  0
    0.0000   -1.5000    0.0000 C   0  0
   -0.0031   -3.0008    0.0000 O   0  0
   -1.3032   -3.7490    0.0000 C   0  0
  1  2  1  0
  2  3  1  0
  3  4  2  0
  4  5  1  0
  5  6  2  0
  6  7  1  0
  7  8  2  0
  8  9  1  0
  9 10  1  0
 10 11  2  0
 10 12  1  0
 12 13  2  0
 13 14  1  0
 14 15  1  0
 15 16  1  0
 14 17  2  0
 17 18  1  0
 18 19  1  0
 17 20  1  0
 20 21  1  0
 21 22  1  0
 20 23  2  0
 23 12  1  0
  9 24  2  0
 24 25  1  0
 25  7  1  0
  6 26  1  0
 26 27  2  0
 27  3  1  0
 27 28  1  0
 28 29  1  0
M  END
> <assay_chembl_id>
CHEMBL1010707

> <assay_description>
Cytotoxicity against human PPC1 cells after 48 hrs by SRB assay

> <document_journal>
J Med Chem

> <molecule_chembl_id>
CHEMBL471410

> <standard_value>
56

> <IC50_uM>
0.056

> <Activity>
Yes

> <Canonical_Smiles>
COc1ccc(-c2nc(C(=O)c3cc(OC)c(OC)c(OC)c3)cs2)cc1OC

$$$$

  SciTegic03142313312D

 26 28  0  0  0  0            999 V2000
    3.8983   -0.7459    0.0000 C   0  0
    2.6003   -1.4977    0.0000 O   0  0
    1.2990   -0.7500    0.0000 C   0  0
    1.2990    0.7500    0.0000 C   0  0
    0.0000    1.5000    0.0000 C   0  0
   -0.0031    3.0008    0.0000 C   0  0
    1.2946    3.7531    0.0000 O   0  0
   -1.3039    3.7494    0.0000 C   0  0
   -1.4470    5.2297    0.0000 C   0  0
   -2.9153    5.5365    0.0000 S   0  0
   -3.6607    4.2349    0.0000 C   0  0
   -5.1527    4.0728    0.0000 C   0  0
   -6.1233    5.2100    0.0000 C   0  0
   -7.5981    4.9362    0.0000 C   0  0
   -8.0984    3.5221    0.0000 C   0  0
   -9.5732    3.2484    0.0000 F   0  0
   -7.1240    2.3818    0.0000 C   0  0
   -5.6491    2.6555    0.0000 C   0  0
   -2.6532    3.1236    0.0000 N   0  0
   -1.2990    0.7500    0.0000 C   0  0
   -1.2990   -0.7500    0.0000 C   0  0
   -2.6003   -1.4978    0.0000 O   0  0
   -3.8983   -0.7459    0.0000 C   0  0
    0.0000   -1.5000    0.0000 C   0  0
    0.0031   -3.0008    0.0000 O   0  0
    1.3032   -3.7490    0.0000 C   0  0
  1  2  1  0
  2  3  1  0
  3  4  2  0
  4  5  1  0
  5  6  1  0
  6  7  2  0
  6  8  1  0
  8  9  2  0
  9 10  1  0
 10 11  1  0
 11 12  1  0
 12 13  2  0
 13 14  1  0
 14 15  2  0
 15 16  1  0
 15 17  1  0
 17 18  2  0
 18 12  1  0
 11 19  2  0
 19  8  1  0
  5 20  2  0
 20 21  1  0
 21 22  1  0
 22 23  1  0
 21 24  2  0
 24  3  1  0
 24 25  1  0
 25 26  1  0
M  END
> <assay_chembl_id>
CHEMBL1010707

> <assay_description>
Cytotoxicity against human PPC1 cells after 48 hrs by SRB assay

> <document_journal>
J Med Chem

> <molecule_chembl_id>
CHEMBL513054

> <standard_value>
8

> <IC50_uM>
0.008

> <Activity>
Yes

> <Canonical_Smiles>
COc1cc(C(=O)c2csc(-c3ccc(F)cc3)n2)cc(OC)c1OC

$$$$

  SciTegic03142313312D

 26 28  0  0  0  0            999 V2000
    3.8983   -0.7459    0.0000 C   0  0
    2.6003   -1.4977    0.0000 O   0  0
    1.2990   -0.7500    0.0000 C   0  0
    1.2990    0.7500    0.0000 C   0  0
    0.0000    1.5000    0.0000 C   0  0
   -0.0031    3.0008    0.0000 C   0  0
    1.2946    3.7531    0.0000 O   0  0
   -1.3039    3.7494    0.0000 C   0  0
   -1.4470    5.2297    0.0000 C   0  0
   -2.9153    5.5365    0.0000 S   0  0
   -3.6607    4.2349    0.0000 C   0  0
   -5.1527    4.0728    0.0000 C   0  0
   -6.1233    5.2100    0.0000 C   0  0
   -7.5981    4.9362    0.0000 C   0  0
   -8.0984    3.5221    0.0000 C   0  0
   -7.1240    2.3818    0.0000 C   0  0
   -7.6243    0.9677    0.0000 F   0  0
   -5.6491    2.6555    0.0000 C   0  0
   -2.6532    3.1236    0.0000 N   0  0
   -1.2990    0.7500    0.0000 C   0  0
   -1.2990   -0.7500    0.0000 C   0  0
   -2.6003   -1.4978    0.0000 O   0  0
   -3.8983   -0.7459    0.0000 C   0  0
    0.0000   -1.5000    0.0000 C   0  0
    0.0031   -3.0008    0.0000 O   0  0
    1.3032   -3.7490    0.0000 C   0  0
  1  2  1  0
  2  3  1  0
  3  4  2  0
  4  5  1  0
  5  6  1  0
  6  7  2  0
  6  8  1  0
  8  9  2  0
  9 10  1  0
 10 11  1  0
 11 12  1  0
 12 13  2  0
 13 14  1  0
 14 15  2  0
 15 16  1  0
 16 17  1  0
 16 18  2  0
 18 12  1  0
 11 19  2  0
 19  8  1  0
  5 20  2  0
 20 21  1  0
 21 22  1  0
 22 23  1  0
 21 24  2  0
 24  3  1  0
 24 25  1  0
 25 26  1  0
M  END
> <assay_chembl_id>
CHEMBL1010707

> <assay_description>
Cytotoxicity against human PPC1 cells after 48 hrs by SRB assay

> <document_journal>
J Med Chem

> <molecule_chembl_id>
CHEMBL471208

> <standard_value>
21

> <IC50_uM>
0.021

> <Activity>
Yes

> <Canonical_Smiles>
COc1cc(C(=O)c2csc(-c3cccc(F)c3)n2)cc(OC)c1OC

$$$$

  SciTegic03142313312D

 26 28  0  0  0  0            999 V2000
    3.8983   -0.7459    0.0000 C   0  0
    2.6003   -1.4977    0.0000 O   0  0
    1.2990   -0.7500    0.0000 C   0  0
    1.2990    0.7500    0.0000 C   0  0
    0.0000    1.5000    0.0000 C   0  0
   -0.0031    3.0008    0.0000 C   0  0
    1.2946    3.7531    0.0000 O   0  0
   -1.3039    3.7494    0.0000 C   0  0
   -1.4470    5.2297    0.0000 C   0  0
   -2.9153    5.5365    0.0000 S   0  0
   -3.6607    4.2349    0.0000 C   0  0
   -5.1527    4.0728    0.0000 C   0  0
   -5.6492    2.6555    0.0000 C   0  0
   -7.1240    2.3818    0.0000 C   0  0
   -8.0984    3.5221    0.0000 C   0  0
   -7.5981    4.9362    0.0000 C   0  0
   -6.1233    5.2100    0.0000 C   0  0
   -5.6225    6.6239    0.0000 F   0  0
   -2.6532    3.1236    0.0000 N   0  0
   -1.2990    0.7500    0.0000 C   0  0
   -1.2990   -0.7500    0.0000 C   0  0
   -2.6003   -1.4978    0.0000 O   0  0
   -3.8983   -0.7459    0.0000 C   0  0
    0.0000   -1.5000    0.0000 C   0  0
    0.0031   -3.0008    0.0000 O   0  0
    1.3032   -3.7490    0.0000 C   0  0
  1  2  1  0
  2  3  1  0
  3  4  2  0
  4  5  1  0
  5  6  1  0
  6  7  2  0
  6  8  1  0
  8  9  2  0
  9 10  1  0
 10 11  1  0
 11 12  1  0
 12 13  2  0
 13 14  1  0
 14 15  2  0
 15 16  1  0
 16 17  2  0
 17 12  1  0
 17 18  1  0
 11 19  2  0
 19  8  1  0
  5 20  2  0
 20 21  1  0
 21 22  1  0
 22 23  1  0
 21 24  2  0
 24  3  1  0
 24 25  1  0
 25 26  1  0
M  END
> <assay_chembl_id>
CHEMBL1010707

> <assay_description>
Cytotoxicity against human PPC1 cells after 48 hrs by SRB assay

> <document_journal>
J Med Chem

> <molecule_chembl_id>
CHEMBL472454

> <standard_value>
52

> <IC50_uM>
0.052

> <Activity>
Yes

> <Canonical_Smiles>
COc1cc(C(=O)c2csc(-c3ccccc3F)n2)cc(OC)c1OC

$$$$

  SciTegic03142313312D

 26 28  0  0  0  0            999 V2000
    3.8983   -0.7459    0.0000 C   0  0
    2.6003   -1.4977    0.0000 O   0  0
    1.2990   -0.7500    0.0000 C   0  0
    1.2990    0.7500    0.0000 C   0  0
    0.0000    1.5000    0.0000 C   0  0
   -0.0031    3.0008    0.0000 C   0  0
    1.2946    3.7531    0.0000 O   0  0
   -1.3039    3.7494    0.0000 C   0  0
   -1.4470    5.2297    0.0000 C   0  0
   -2.9153    5.5365    0.0000 S   0  0
   -3.6607    4.2349    0.0000 C   0  0
   -5.1527    4.0728    0.0000 C   0  0
   -6.1233    5.2100    0.0000 C   0  0
   -7.5981    4.9362    0.0000 C   0  0
   -8.0984    3.5221    0.0000 C   0  0
   -9.5732    3.2484    0.0000 C   0  0
   -7.1240    2.3818    0.0000 C   0  0
   -5.6491    2.6555    0.0000 C   0  0
   -2.6532    3.1236    0.0000 N   0  0
   -1.2990    0.7500    0.0000 C   0  0
   -1.2990   -0.7500    0.0000 C   0  0
   -2.6003   -1.4978    0.0000 O   0  0
   -3.8983   -0.7459    0.0000 C   0  0
    0.0000   -1.5000    0.0000 C   0  0
    0.0031   -3.0008    0.0000 O   0  0
    1.3032   -3.7490    0.0000 C   0  0
  1  2  1  0
  2  3  1  0
  3  4  2  0
  4  5  1  0
  5  6  1  0
  6  7  2  0
  6  8  1  0
  8  9  2  0
  9 10  1  0
 10 11  1  0
 11 12  1  0
 12 13  2  0
 13 14  1  0
 14 15  2  0
 15 16  1  0
 15 17  1  0
 17 18  2  0
 18 12  1  0
 11 19  2  0
 19  8  1  0
  5 20  2  0
 20 21  1  0
 21 22  1  0
 22 23  1  0
 21 24  2  0
 24  3  1  0
 24 25  1  0
 25 26  1  0
M  END
> <assay_chembl_id>
CHEMBL1010707

> <assay_description>
Cytotoxicity against human PPC1 cells after 48 hrs by SRB assay

> <document_journal>
J Med Chem

> <molecule_chembl_id>
CHEMBL499424

> <standard_value>
6

> <IC50_uM>
0.006

> <Activity>
Yes

> <Canonical_Smiles>
COc1cc(C(=O)c2csc(-c3ccc(C)cc3)n2)cc(OC)c1OC

$$$$

  SciTegic03142313312D

 23 25  0  0  0  0            999 V2000
    2.5951   -3.0031    0.0000 C   0  0
    2.5973   -1.5031    0.0000 O   0  0
    1.2990   -0.7500    0.0000 C   0  0
    1.2990    0.7500    0.0000 C   0  0
    0.0000    1.5000    0.0000 C   0  0
   -0.0031    3.0008    0.0000 O   0  0
   -1.3032    3.7490    0.0000 C   0  0
   -1.2990    0.7500    0.0000 C   0  0
   -1.2990   -0.7500    0.0000 C   0  0
   -2.5972   -1.5031    0.0000 C   0  0
   -3.8976   -0.7554    0.0000 O   0  0
   -2.5951   -3.0039    0.0000 C   0  0
   -3.8056   -3.8680    0.0000 C   0  0
   -3.3371   -5.2929    0.0000 S   0  0
   -1.8371   -5.2877    0.0000 C   0  0
   -0.9508   -6.4988    0.0000 C   0  0
   -1.4503   -7.9079    0.0000 C   0  0
   -0.4759   -9.0482    0.0000 C   0  0
    0.9989   -8.7745    0.0000 C   0  0
    1.4993   -7.3604    0.0000 C   0  0
    0.5248   -6.2201    0.0000 C   0  0
   -1.3786   -3.8595    0.0000 N   0  0
    0.0000   -1.5000    0.0000 C   0  0
  1  2  1  0
  2  3  1  0
  3  4  2  0
  4  5  1  0
  5  6  1  0
  6  7  1  0
  5  8  2  0
  8  9  1  0
  9 10  1  0
 10 11  2  0
 10 12  1  0
 12 13  2  0
 13 14  1  0
 14 15  1  0
 15 16  1  0
 16 17  2  0
 17 18  1  0
 18 19  2  0
 19 20  1  0
 20 21  2  0
 21 16  1  0
 15 22  2  0
 22 12  1  0
  9 23  2  0
 23  3  1  0
M  END
> <assay_chembl_id>
CHEMBL1010707

> <assay_description>
Cytotoxicity against human PPC1 cells after 48 hrs by SRB assay

> <document_journal>
J Med Chem

> <molecule_chembl_id>
CHEMBL472248

> <standard_value>
242

> <IC50_uM>
0.242

> <Activity>
Yes

> <Canonical_Smiles>
COc1cc(OC)cc(C(=O)c2csc(-c3ccccc3)n2)c1

$$$$

  SciTegic03142313312D

 25 27  0  0  0  0            999 V2000
    3.8983   -0.7459    0.0000 C   0  0
    2.6003   -1.4977    0.0000 O   0  0
    1.2990   -0.7500    0.0000 C   0  0
    1.2990    0.7500    0.0000 C   0  0
    0.0000    1.5000    0.0000 C   0  0
   -0.0031    3.0008    0.0000 C   0  0
    1.2946    3.7531    0.0000 O   0  0
   -1.3039    3.7494    0.0000 C   0  0
   -1.4470    5.2297    0.0000 C   0  0
   -2.9153    5.5365    0.0000 S   0  0
   -3.6607    4.2349    0.0000 C   0  0
   -5.1527    4.0728    0.0000 C   0  0
   -6.1233    5.2100    0.0000 C   0  0
   -7.5981    4.9362    0.0000 C   0  0
   -8.0984    3.5221    0.0000 C   0  0
   -7.1240    2.3818    0.0000 C   0  0
   -5.6491    2.6555    0.0000 C   0  0
   -2.6532    3.1236    0.0000 N   0  0
   -1.2990    0.7500    0.0000 C   0  0
   -1.2990   -0.7500    0.0000 C   0  0
   -2.6003   -1.4978    0.0000 O   0  0
   -3.8983   -0.7459    0.0000 C   0  0
    0.0000   -1.5000    0.0000 C   0  0
    0.0031   -3.0008    0.0000 O   0  0
    1.3032   -3.7490    0.0000 C   0  0
  1  2  1  0
  2  3  1  0
  3  4  2  0
  4  5  1  0
  5  6  1  0
  6  7  2  0
  6  8  1  0
  8  9  2  0
  9 10  1  0
 10 11  1  0
 11 12  1  0
 12 13  2  0
 13 14  1  0
 14 15  2  0
 15 16  1  0
 16 17  2  0
 17 12  1  0
 11 18  2  0
 18  8  1  0
  5 19  2  0
 19 20  1  0
 20 21  1  0
 21 22  1  0
 20 23  2  0
 23  3  1  0
 23 24  1  0
 24 25  1  0
M  END
> <assay_chembl_id>
CHEMBL1010707

> <assay_description>
Cytotoxicity against human PPC1 cells after 48 hrs by SRB assay

> <document_journal>
J Med Chem

> <molecule_chembl_id>
CHEMBL459773

> <standard_value>
43

> <IC50_uM>
0.043

> <Activity>
Yes

> <Canonical_Smiles>
COc1cc(C(=O)c2csc(-c3ccccc3)n2)cc(OC)c1OC

$$$$

  SciTegic03142313312D

 29 31  0  0  1  0            999 V2000
    5.9843   -1.7144    0.0000 C   0  0
    5.6526   -0.2515    0.0000 O   0  0
    4.2194    0.1938    0.0000 C   0  0
    3.1198   -0.8265    0.0000 C   0  0
    1.6852   -0.3846    0.0000 C   0  0
    1.3514    1.0778    0.0000 C   0  0
    2.4522    2.0983    0.0000 C   0  0
    2.1219    3.5623    0.0000 O   0  0
    3.2233    4.5806    0.0000 C   0  0
    3.8856    1.6562    0.0000 C   0  0
    4.9879    2.6747    0.0000 O   0  0
    6.4206    2.2306    0.0000 C   0  0
    0.0000    1.7286    0.0000 C   0  0
    0.3330    3.1926    0.0000 C   0  0
   -0.6022    4.3653    0.0000 C   0  0
   -2.1022    4.3653    0.0000 C   0  0
   -2.7515    5.7206    0.0000 O   0  0
   -1.9048    6.9588    0.0000 C   0  0
   -3.0375    3.1925    0.0000 C   0  0
   -4.4999    3.5263    0.0000 O   0  0
   -2.7037    1.7302    0.0000 C   0  0
   -1.3515    1.0777    0.0000 C   0  0
   -1.6852   -0.3847    0.0000 C   0  0  1  0  0  0
   -3.1510   -0.7161    0.0000 N   0  0
   -4.1703    0.3855    0.0000 C   0  0
   -3.7257    1.8181    0.0000 C   0  0
   -5.6334    0.0548    0.0000 O   0  0
   -0.7500   -1.5574    0.0000 C   0  0
    0.7500   -1.5574    0.0000 C   0  0
  1  2  1  0
  2  3  1  0
  3  4  2  0
  4  5  1  0
  5  6  2  0
  6  7  1  0
  7  8  1  0
  8  9  1  0
  7 10  2  0
 10  3  1  0
 10 11  1  0
 11 12  1  0
  6 13  1  0
 13 14  2  0
 14 15  1  0
 15 16  2  0
 16 17  1  0
 17 18  1  0
 16 19  1  0
 19 20  2  0
 19 21  1  0
 21 22  2  0
 22 13  1  0
 22 23  1  0
 23 24  1  6
 24 25  1  0
 25 26  1  0
 25 27  2  0
 23 28  1  0
 28 29  1  0
 29  5  1  0
M  END
> <assay_chembl_id>
CHEMBL1010707

> <assay_description>
Cytotoxicity against human PPC1 cells after 48 hrs by SRB assay

> <document_journal>
J Med Chem

> <molecule_chembl_id>
CHEMBL107

> <standard_value>
20

> <IC50_uM>
0.02

> <Activity>
Yes

> <Canonical_Smiles>
COc1cc2c(c(OC)c1OC)-c1ccc(OC)c(=O)cc1[C@@H](NC(C)=O)CC2

$$$$

  SciTegic03142313312D

 38 39  0  0  1  0            999 V2000
    1.3963  -29.1408    0.0000 C   0  0
    2.2816  -27.9299    0.0000 C   0  0
    1.6762  -26.5566    0.0000 C   0  0
    2.5620  -25.3451    0.0000 C   0  0
    1.9566  -23.9718    0.0000 C   0  0
    2.8425  -22.7603    0.0000 C   0  0
    2.2370  -21.3870    0.0000 C   0  0
    3.1229  -20.1755    0.0000 C   0  0
    2.5175  -18.8022    0.0000 C   0  0
    3.4033  -17.5907    0.0000 C   0  0
    2.7979  -16.2174    0.0000 C   0  0
    1.3060  -16.0541    0.0000 C   0  0
    0.7005  -14.6808    0.0000 C   0  0
   -0.7914  -14.5175    0.0000 C   0  0
   -1.3968  -13.1442    0.0000 C   0  0
   -2.8887  -12.9809    0.0000 C   0  0
   -3.4941  -11.6076    0.0000 C   0  0
   -4.9860  -11.4443    0.0000 C   0  0
   -5.5915  -10.0710    0.0000 N   0  0
   -7.0834   -9.9077    0.0000 C   0  0
   -7.9699  -11.1177    0.0000 O   0  0
   -7.6878   -8.5368    0.0000 C   0  0  2  0  0  0
   -9.1532   -8.2165    0.0000 C   0  0
   -9.3014   -6.7238    0.0000 S   0  0
   -7.9323   -6.1429    0.0000 C   0  0  3  0  0  0
   -7.6095   -4.6773    0.0000 C   0  0
   -8.7168   -3.6655    0.0000 C   0  0
   -8.3942   -2.2006    0.0000 C   0  0
   -9.5042   -1.1905    0.0000 O   0  0
  -10.9335   -1.6456    0.0000 C   0  0
   -6.9643   -1.7475    0.0000 C   0  0
   -6.6385   -0.2825    0.0000 O   0  0
   -5.2079    0.1686    0.0000 C   0  0
   -5.8569   -2.7594    0.0000 C   0  0
   -4.4253   -2.3090    0.0000 O   0  0
   -3.3194   -3.3224    0.0000 C   0  0
   -6.1795   -4.2243    0.0000 C   0  0
   -6.9303   -7.2421    0.0000 N   0  0
  1  2  1  0
  2  3  1  0
  3  4  1  0
  4  5  1  0
  5  6  1  0
  6  7  1  0
  7  8  1  0
  8  9  1  0
  9 10  1  0
 10 11  2  0
 11 12  1  0
 12 13  1  0
 13 14  1  0
 14 15  1  0
 15 16  1  0
 16 17  1  0
 17 18  1  0
 18 19  1  0
 19 20  1  0
 20 21  2  0
 22 20  1  6
 22 23  1  0
 23 24  1  0
 24 25  1  0
 25 26  1  4
 26 27  2  0
 27 28  1  0
 28 29  1  0
 29 30  1  0
 28 31  2  0
 31 32  1  0
 32 33  1  0
 31 34  1  0
 34 35  1  0
 35 36  1  0
 34 37  2  0
 37 26  1  0
 25 38  1  0
 38 22  1  0
M  END
> <assay_chembl_id>
CHEMBL1066495

> <assay_description>
Antiproliferative activity against human PPC1 cells after 96 hrs by SRB assay

> <document_journal>
Bioorg Med Chem

> <molecule_chembl_id>
CHEMBL603889

> <standard_value>
500

> <IC50_uM>
0.5

> <Activity>
Yes

> <Canonical_Smiles>
CCCCCCCCC/C=C\CCCCCCCNC(=O)[C@@H]1CSC(c2cc(OC)c(OC)c(OC)c2)N1

$$$$

  SciTegic03142313312D

 38 39  0  0  1  0            999 V2000
    1.3963  -29.1408    0.0000 C   0  0
    2.2816  -27.9299    0.0000 C   0  0
    1.6762  -26.5566    0.0000 C   0  0
    2.5620  -25.3451    0.0000 C   0  0
    1.9566  -23.9718    0.0000 C   0  0
    2.8425  -22.7603    0.0000 C   0  0
    2.2370  -21.3870    0.0000 C   0  0
    3.1229  -20.1755    0.0000 C   0  0
    2.5175  -18.8022    0.0000 C   0  0
    3.4033  -17.5907    0.0000 C   0  0
    2.7979  -16.2174    0.0000 C   0  0
    3.6837  -15.0058    0.0000 C   0  0
    3.0783  -13.6325    0.0000 C   0  0
    3.9641  -12.4210    0.0000 C   0  0
    3.3587  -11.0477    0.0000 C   0  0
    4.2445   -9.8362    0.0000 C   0  0
    3.6391   -8.4629    0.0000 C   0  0
    4.5250   -7.2514    0.0000 C   0  0
    3.9195   -5.8781    0.0000 N   0  0
    4.8054   -4.6666    0.0000 C   0  0
    6.2966   -4.8284    0.0000 O   0  0
    4.2010   -3.2956    0.0000 C   0  0  2  0  0  0
    4.9531   -1.9978    0.0000 C   0  0
    3.9511   -0.8815    0.0000 S   0  0
    2.5987   -1.5004    0.0000 C   0  0  3  0  0  0
    1.2990   -0.7500    0.0000 C   0  0
    1.2990    0.7500    0.0000 C   0  0
    0.0000    1.5000    0.0000 C   0  0
    0.0031    3.0008    0.0000 O   0  0
    1.3032    3.7490    0.0000 C   0  0
   -1.2990    0.7500    0.0000 C   0  0
   -2.6003    1.4977    0.0000 O   0  0
   -3.8983    0.7459    0.0000 C   0  0
   -1.2990   -0.7500    0.0000 C   0  0
   -2.5972   -1.5031    0.0000 O   0  0
   -2.5951   -3.0031    0.0000 C   0  0
    0.0000   -1.5000    0.0000 C   0  0
    2.7343   -2.9815    0.0000 N   0  0
  1  2  1  0
  2  3  1  0
  3  4  1  0
  4  5  1  0
  5  6  1  0
  6  7  1  0
  7  8  1  0
  8  9  1  0
  9 10  1  0
 10 11  2  0
 11 12  1  0
 12 13  1  0
 13 14  1  0
 14 15  1  0
 15 16  1  0
 16 17  1  0
 17 18  1  0
 18 19  1  0
 19 20  1  0
 20 21  2  0
 22 20  1  1
 22 23  1  0
 23 24  1  0
 24 25  1  0
 25 26  1  4
 26 27  2  0
 27 28  1  0
 28 29  1  0
 29 30  1  0
 28 31  2  0
 31 32  1  0
 32 33  1  0
 31 34  1  0
 34 35  1  0
 35 36  1  0
 34 37  2  0
 37 26  1  0
 25 38  1  0
 38 22  1  0
M  END
> <assay_chembl_id>
CHEMBL1066495

> <assay_description>
Antiproliferative activity against human PPC1 cells after 96 hrs by SRB assay

> <document_journal>
Bioorg Med Chem

> <molecule_chembl_id>
CHEMBL598664

> <standard_value>
300

> <IC50_uM>
0.3

> <Activity>
Yes

> <Canonical_Smiles>
CCCCCCCCC/C=C/CCCCCCCNC(=O)[C@@H]1CSC(c2cc(OC)c(OC)c(OC)c2)N1

$$$$

  SciTegic03142313312D

 36 37  0  0  1  0            999 V2000
    1.3963  -29.1408    0.0000 C   0  0
    2.2816  -27.9299    0.0000 C   0  0
    1.6762  -26.5566    0.0000 C   0  0
    2.5620  -25.3451    0.0000 C   0  0
    1.9566  -23.9718    0.0000 C   0  0
    2.8425  -22.7603    0.0000 C   0  0
    2.2370  -21.3870    0.0000 C   0  0
    3.1229  -20.1755    0.0000 C   0  0
    2.5175  -18.8022    0.0000 C   0  0
    3.4033  -17.5907    0.0000 C   0  0
    2.7979  -16.2174    0.0000 C   0  0
    3.6837  -15.0058    0.0000 C   0  0
    3.0783  -13.6325    0.0000 C   0  0
    3.9641  -12.4210    0.0000 C   0  0
    3.3587  -11.0477    0.0000 C   0  0
    4.2445   -9.8362    0.0000 C   0  0
    3.6391   -8.4629    0.0000 C   0  0
    4.5250   -7.2514    0.0000 C   0  0
    3.9195   -5.8781    0.0000 N   0  0
    4.8054   -4.6666    0.0000 C   0  0
    6.2966   -4.8284    0.0000 O   0  0
    4.2010   -3.2956    0.0000 C   0  0  2  0  0  0
    4.9531   -1.9978    0.0000 C   0  0
    3.9511   -0.8815    0.0000 S   0  0
    2.5987   -1.5004    0.0000 C   0  0  3  0  0  0
    1.2990   -0.7500    0.0000 C   0  0
    1.2990    0.7500    0.0000 C   0  0
    0.0000    1.5000    0.0000 C   0  0
   -1.2990    0.7500    0.0000 C   0  0
   -2.5973    1.5031    0.0000 O   0  0
   -2.5951    3.0031    0.0000 C   0  0
   -1.2990   -0.7500    0.0000 C   0  0
   -2.5972   -1.5031    0.0000 O   0  0
   -2.5951   -3.0031    0.0000 C   0  0
    0.0000   -1.5000    0.0000 C   0  0
    2.7343   -2.9815    0.0000 N   0  0
  1  2  1  0
  2  3  1  0
  3  4  1  0
  4  5  1  0
  5  6  1  0
  6  7  1  0
  7  8  1  0
  8  9  1  0
  9 10  1  0
 10 11  1  0
 11 12  1  0
 12 13  1  0
 13 14  1  0
 14 15  1  0
 15 16  1  0
 16 17  1  0
 17 18  1  0
 18 19  1  0
 19 20  1  0
 20 21  2  0
 22 20  1  1
 22 23  1  0
 23 24  1  0
 24 25  1  0
 25 26  1  4
 26 27  2  0
 27 28  1  0
 28 29  2  0
 29 30  1  0
 30 31  1  0
 29 32  1  0
 32 33  1  0
 33 34  1  0
 32 35  2  0
 35 26  1  0
 25 36  1  0
 36 22  1  0
M  END
> <assay_chembl_id>
CHEMBL1066495

> <assay_description>
Antiproliferative activity against human PPC1 cells after 96 hrs by SRB assay

> <document_journal>
Bioorg Med Chem

> <molecule_chembl_id>
CHEMBL598302

> <standard_value>
900

> <IC50_uM>
0.9

> <Activity>
Yes

> <Canonical_Smiles>
CCCCCCCCCCCCCCCCCCNC(=O)[C@@H]1CSC(c2ccc(OC)c(OC)c2)N1

$$$$

  SciTegic03142313312D

 36 37  0  0  1  0            999 V2000
    1.3963  -29.1408    0.0000 C   0  0
    2.2816  -27.9299    0.0000 C   0  0
    1.6762  -26.5566    0.0000 C   0  0
    2.5620  -25.3451    0.0000 C   0  0
    1.9566  -23.9718    0.0000 C   0  0
    2.8425  -22.7603    0.0000 C   0  0
    2.2370  -21.3870    0.0000 C   0  0
    3.1229  -20.1755    0.0000 C   0  0
    2.5175  -18.8022    0.0000 C   0  0
    3.4033  -17.5907    0.0000 C   0  0
    2.7979  -16.2174    0.0000 C   0  0
    1.3060  -16.0541    0.0000 C   0  0
    0.7005  -14.6808    0.0000 C   0  0
   -0.7914  -14.5175    0.0000 C   0  0
   -1.3968  -13.1442    0.0000 C   0  0
   -2.8887  -12.9809    0.0000 C   0  0
   -3.4941  -11.6076    0.0000 C   0  0
   -4.9860  -11.4443    0.0000 C   0  0
   -5.5915  -10.0710    0.0000 N   0  0
   -7.0834   -9.9077    0.0000 C   0  0
   -7.9699  -11.1177    0.0000 O   0  0
   -7.6878   -8.5368    0.0000 C   0  0  2  0  0  0
   -9.1532   -8.2165    0.0000 C   0  0
   -9.3014   -6.7238    0.0000 S   0  0
   -7.9323   -6.1429    0.0000 C   0  0  3  0  0  0
   -7.6095   -4.6773    0.0000 C   0  0
   -8.7168   -3.6655    0.0000 C   0  0
   -8.3942   -2.2006    0.0000 C   0  0
   -6.9643   -1.7475    0.0000 C   0  0
   -6.6445   -0.2811    0.0000 O   0  0
   -7.7533    0.7291    0.0000 C   0  0
   -5.8569   -2.7594    0.0000 C   0  0
   -4.4253   -2.3090    0.0000 O   0  0
   -3.3194   -3.3224    0.0000 C   0  0
   -6.1795   -4.2243    0.0000 C   0  0
   -6.9303   -7.2421    0.0000 N   0  0
  1  2  1  0
  2  3  1  0
  3  4  1  0
  4  5  1  0
  5  6  1  0
  6  7  1  0
  7  8  1  0
  8  9  1  0
  9 10  1  0
 10 11  2  0
 11 12  1  0
 12 13  1  0
 13 14  1  0
 14 15  1  0
 15 16  1  0
 16 17  1  0
 17 18  1  0
 18 19  1  0
 19 20  1  0
 20 21  2  0
 22 20  1  6
 22 23  1  0
 23 24  1  0
 24 25  1  0
 25 26  1  4
 26 27  2  0
 27 28  1  0
 28 29  2  0
 29 30  1  0
 30 31  1  0
 29 32  1  0
 32 33  1  0
 33 34  1  0
 32 35  2  0
 35 26  1  0
 25 36  1  0
 36 22  1  0
M  END
> <assay_chembl_id>
CHEMBL1066495

> <assay_description>
Antiproliferative activity against human PPC1 cells after 96 hrs by SRB assay

> <document_journal>
Bioorg Med Chem

> <molecule_chembl_id>
CHEMBL598303

> <standard_value>
600

> <IC50_uM>
0.6

> <Activity>
Yes

> <Canonical_Smiles>
CCCCCCCCC/C=C\CCCCCCCNC(=O)[C@@H]1CSC(c2ccc(OC)c(OC)c2)N1

$$$$

  SciTegic03142313312D

 36 37  0  0  1  0            999 V2000
    1.3963  -29.1408    0.0000 C   0  0
    2.2816  -27.9299    0.0000 C   0  0
    1.6762  -26.5566    0.0000 C   0  0
    2.5620  -25.3451    0.0000 C   0  0
    1.9566  -23.9718    0.0000 C   0  0
    2.8425  -22.7603    0.0000 C   0  0
    2.2370  -21.3870    0.0000 C   0  0
    3.1229  -20.1755    0.0000 C   0  0
    2.5175  -18.8022    0.0000 C   0  0
    3.4033  -17.5907    0.0000 C   0  0
    2.7979  -16.2174    0.0000 C   0  0
    3.6837  -15.0058    0.0000 C   0  0
    3.0783  -13.6325    0.0000 C   0  0
    3.9641  -12.4210    0.0000 C   0  0
    3.3587  -11.0477    0.0000 C   0  0
    4.2445   -9.8362    0.0000 C   0  0
    3.6391   -8.4629    0.0000 C   0  0
    4.5250   -7.2514    0.0000 C   0  0
    3.9195   -5.8781    0.0000 N   0  0
    4.8054   -4.6666    0.0000 C   0  0
    6.2966   -4.8284    0.0000 O   0  0
    4.2010   -3.2956    0.0000 C   0  0  2  0  0  0
    4.9531   -1.9978    0.0000 C   0  0
    3.9511   -0.8815    0.0000 S   0  0
    2.5987   -1.5004    0.0000 C   0  0  3  0  0  0
    1.2990   -0.7500    0.0000 C   0  0
    1.2990    0.7500    0.0000 C   0  0
    0.0000    1.5000    0.0000 C   0  0
   -1.2990    0.7500    0.0000 C   0  0
   -2.5973    1.5031    0.0000 O   0  0
   -2.5951    3.0031    0.0000 C   0  0
   -1.2990   -0.7500    0.0000 C   0  0
   -2.5972   -1.5031    0.0000 O   0  0
   -2.5951   -3.0031    0.0000 C   0  0
    0.0000   -1.5000    0.0000 C   0  0
    2.7343   -2.9815    0.0000 N   0  0
  1  2  1  0
  2  3  1  0
  3  4  1  0
  4  5  1  0
  5  6  1  0
  6  7  1  0
  7  8  1  0
  8  9  1  0
  9 10  1  0
 10 11  2  0
 11 12  1  0
 12 13  1  0
 13 14  1  0
 14 15  1  0
 15 16  1  0
 16 17  1  0
 17 18  1  0
 18 19  1  0
 19 20  1  0
 20 21  2  0
 22 20  1  1
 22 23  1  0
 23 24  1  0
 24 25  1  0
 25 26  1  4
 26 27  2  0
 27 28  1  0
 28 29  2  0
 29 30  1  0
 30 31  1  0
 29 32  1  0
 32 33  1  0
 33 34  1  0
 32 35  2  0
 35 26  1  0
 25 36  1  0
 36 22  1  0
M  END
> <assay_chembl_id>
CHEMBL1066495

> <assay_description>
Antiproliferative activity against human PPC1 cells after 96 hrs by SRB assay

> <document_journal>
Bioorg Med Chem

> <molecule_chembl_id>
CHEMBL598304

> <standard_value>
300

> <IC50_uM>
0.3

> <Activity>
Yes

> <Canonical_Smiles>
CCCCCCCCC/C=C/CCCCCCCNC(=O)[C@@H]1CSC(c2ccc(OC)c(OC)c2)N1

$$$$

  SciTegic03142313312D

 32 33  0  0  1  0            999 V2000
    1.6767  -26.5560    0.0000 C   0  0
    2.5620  -25.3451    0.0000 C   0  0
    1.9566  -23.9718    0.0000 C   0  0
    2.8425  -22.7603    0.0000 C   0  0
    2.2370  -21.3870    0.0000 C   0  0
    3.1229  -20.1755    0.0000 C   0  0
    2.5175  -18.8022    0.0000 C   0  0
    3.4033  -17.5907    0.0000 C   0  0
    2.7979  -16.2174    0.0000 C   0  0
    3.6837  -15.0058    0.0000 C   0  0
    3.0783  -13.6325    0.0000 C   0  0
    3.9641  -12.4210    0.0000 C   0  0
    3.3587  -11.0477    0.0000 C   0  0
    4.2445   -9.8362    0.0000 C   0  0
    3.6391   -8.4629    0.0000 C   0  0
    4.5250   -7.2514    0.0000 C   0  0
    3.9195   -5.8781    0.0000 N   0  0
    4.8054   -4.6666    0.0000 C   0  0
    6.2966   -4.8284    0.0000 O   0  0
    4.2010   -3.2956    0.0000 C   0  0  2  0  0  0
    4.9531   -1.9978    0.0000 C   0  0
    3.9511   -0.8815    0.0000 S   0  0
    2.5987   -1.5004    0.0000 C   0  0  3  0  0  0
    1.2990   -0.7500    0.0000 C   0  0
    1.2990    0.7500    0.0000 C   0  0
    0.0000    1.5000    0.0000 C   0  0
   -1.2990    0.7500    0.0000 C   0  0
   -1.2990   -0.7500    0.0000 C   0  0
   -2.5972   -1.5031    0.0000 O   0  0
   -2.5951   -3.0031    0.0000 C   0  0
    0.0000   -1.5000    0.0000 C   0  0
    2.7343   -2.9815    0.0000 N   0  0
  1  2  1  0
  2  3  1  0
  3  4  1  0
  4  5  1  0
  5  6  1  0
  6  7  1  0
  7  8  1  0
  8  9  1  0
  9 10  1  0
 10 11  1  0
 11 12  1  0
 12 13  1  0
 13 14  1  0
 14 15  1  0
 15 16  1  0
 16 17  1  0
 17 18  1  0
 18 19  2  0
 20 18  1  1
 20 21  1  0
 21 22  1  0
 22 23  1  0
 23 24  1  4
 24 25  2  0
 25 26  1  0
 26 27  2  0
 27 28  1  0
 28 29  1  0
 29 30  1  0
 28 31  2  0
 31 24  1  0
 23 32  1  0
 32 20  1  0
M  END
> <assay_chembl_id>
CHEMBL1066495

> <assay_description>
Antiproliferative activity against human PPC1 cells after 96 hrs by SRB assay

> <document_journal>
Bioorg Med Chem

> <molecule_chembl_id>
CHEMBL599749

> <standard_value>
200

> <IC50_uM>
0.2

> <Activity>
Yes

> <Canonical_Smiles>
CCCCCCCCCCCCCCCCNC(=O)[C@@H]1CSC(c2cccc(OC)c2)N1

$$$$

  SciTegic03142313312D

 32 33  0  0  1  0            999 V2000
    1.6767  -26.5560    0.0000 C   0  0
    2.5620  -25.3451    0.0000 C   0  0
    1.9566  -23.9718    0.0000 C   0  0
    2.8425  -22.7603    0.0000 C   0  0
    2.2370  -21.3870    0.0000 C   0  0
    3.1229  -20.1755    0.0000 C   0  0
    2.5175  -18.8022    0.0000 C   0  0
    3.4033  -17.5907    0.0000 C   0  0
    2.7979  -16.2174    0.0000 C   0  0
    3.6837  -15.0058    0.0000 C   0  0
    3.0783  -13.6325    0.0000 C   0  0
    3.9641  -12.4210    0.0000 C   0  0
    3.3587  -11.0477    0.0000 C   0  0
    4.2445   -9.8362    0.0000 C   0  0
    3.6391   -8.4629    0.0000 C   0  0
    4.5250   -7.2514    0.0000 C   0  0
    3.9195   -5.8781    0.0000 N   0  0
    4.8054   -4.6666    0.0000 C   0  0
    6.2966   -4.8284    0.0000 O   0  0
    4.2010   -3.2956    0.0000 C   0  0  2  0  0  0
    4.9531   -1.9978    0.0000 C   0  0
    3.9511   -0.8815    0.0000 S   0  0
    2.5987   -1.5004    0.0000 C   0  0  3  0  0  0
    1.2990   -0.7500    0.0000 C   0  0
    1.2990    0.7500    0.0000 C   0  0
    0.0000    1.5000    0.0000 C   0  0
   -1.2990    0.7500    0.0000 C   0  0
   -2.6003    1.4977    0.0000 O   0  0
   -3.8983    0.7459    0.0000 C   0  0
   -1.2990   -0.7500    0.0000 C   0  0
    0.0000   -1.5000    0.0000 C   0  0
    2.7343   -2.9815    0.0000 N   0  0
  1  2  1  0
  2  3  1  0
  3  4  1  0
  4  5  1  0
  5  6  1  0
  6  7  1  0
  7  8  1  0
  8  9  1  0
  9 10  1  0
 10 11  1  0
 11 12  1  0
 12 13  1  0
 13 14  1  0
 14 15  1  0
 15 16  1  0
 16 17  1  0
 17 18  1  0
 18 19  2  0
 20 18  1  1
 20 21  1  0
 21 22  1  0
 22 23  1  0
 23 24  1  4
 24 25  2  0
 25 26  1  0
 26 27  2  0
 27 28  1  0
 28 29  1  0
 27 30  1  0
 30 31  2  0
 31 24  1  0
 23 32  1  0
 32 20  1  0
M  END
> <assay_chembl_id>
CHEMBL1066495

> <assay_description>
Antiproliferative activity against human PPC1 cells after 96 hrs by SRB assay

> <document_journal>
Bioorg Med Chem

> <molecule_chembl_id>
CHEMBL599750

> <standard_value>
400

> <IC50_uM>
0.4

> <Activity>
Yes

> <Canonical_Smiles>
CCCCCCCCCCCCCCCCNC(=O)[C@@H]1CSC(c2ccc(OC)cc2)N1

$$$$

  SciTegic03142313312D

 33 34  0  0  1  0            999 V2000
    1.6767  -26.5560    0.0000 C   0  0
    2.5620  -25.3451    0.0000 C   0  0
    1.9566  -23.9718    0.0000 C   0  0
    2.8425  -22.7603    0.0000 C   0  0
    2.2370  -21.3870    0.0000 C   0  0
    3.1229  -20.1755    0.0000 C   0  0
    2.5175  -18.8022    0.0000 C   0  0
    3.4033  -17.5907    0.0000 C   0  0
    2.7979  -16.2174    0.0000 C   0  0
    3.6837  -15.0058    0.0000 C   0  0
    3.0783  -13.6325    0.0000 C   0  0
    3.9641  -12.4210    0.0000 C   0  0
    3.3587  -11.0477    0.0000 C   0  0
    4.2445   -9.8362    0.0000 C   0  0
    3.6391   -8.4629    0.0000 C   0  0
    4.5250   -7.2514    0.0000 C   0  0
    3.9195   -5.8781    0.0000 N   0  0
    4.8054   -4.6666    0.0000 C   0  0
    6.2966   -4.8284    0.0000 O   0  0
    4.2010   -3.2956    0.0000 C   0  0  2  0  0  0
    4.9531   -1.9978    0.0000 C   0  0
    3.9511   -0.8815    0.0000 S   0  0
    2.5987   -1.5004    0.0000 C   0  0  3  0  0  0
    1.2990   -0.7500    0.0000 C   0  0
    1.2990    0.7500    0.0000 C   0  0
    0.0000    1.5000    0.0000 C   0  0
   -1.2990    0.7500    0.0000 C   0  0
   -2.6003    1.4977    0.0000 N   0  0
   -3.8983    0.7459    0.0000 C   0  0
   -2.6030    2.9977    0.0000 C   0  0
   -1.2990   -0.7500    0.0000 C   0  0
    0.0000   -1.5000    0.0000 C   0  0
    2.7343   -2.9815    0.0000 N   0  0
  1  2  1  0
  2  3  1  0
  3  4  1  0
  4  5  1  0
  5  6  1  0
  6  7  1  0
  7  8  1  0
  8  9  1  0
  9 10  1  0
 10 11  1  0
 11 12  1  0
 12 13  1  0
 13 14  1  0
 14 15  1  0
 15 16  1  0
 16 17  1  0
 17 18  1  0
 18 19  2  0
 20 18  1  1
 20 21  1  0
 21 22  1  0
 22 23  1  0
 23 24  1  4
 24 25  2  0
 25 26  1  0
 26 27  2  0
 27 28  1  0
 28 29  1  0
 28 30  1  0
 27 31  1  0
 31 32  2  0
 32 24  1  0
 23 33  1  0
 33 20  1  0
M  END
> <assay_chembl_id>
CHEMBL1066495

> <assay_description>
Antiproliferative activity against human PPC1 cells after 96 hrs by SRB assay

> <document_journal>
Bioorg Med Chem

> <molecule_chembl_id>
CHEMBL597703

> <standard_value>
400

> <IC50_uM>
0.4

> <Activity>
Yes

> <Canonical_Smiles>
CCCCCCCCCCCCCCCCNC(=O)[C@@H]1CSC(c2ccc(N(C)C)cc2)N1

$$$$

  SciTegic03142313312D

 37 38  0  0  1  0            999 V2000
    1.3963  -29.1408    0.0000 C   0  0
    2.2816  -27.9299    0.0000 C   0  0
    1.6762  -26.5566    0.0000 C   0  0
    2.5620  -25.3451    0.0000 C   0  0
    1.9566  -23.9718    0.0000 C   0  0
    2.8425  -22.7603    0.0000 C   0  0
    2.2370  -21.3870    0.0000 C   0  0
    3.1229  -20.1755    0.0000 C   0  0
    2.5175  -18.8022    0.0000 C   0  0
    3.4033  -17.5907    0.0000 C   0  0
    2.7979  -16.2174    0.0000 C   0  0
    3.6837  -15.0058    0.0000 C   0  0
    3.0783  -13.6325    0.0000 C   0  0
    3.9641  -12.4210    0.0000 C   0  0
    3.3587  -11.0477    0.0000 C   0  0
    4.2445   -9.8362    0.0000 C   0  0
    3.6391   -8.4629    0.0000 C   0  0
    4.5250   -7.2514    0.0000 C   0  0
    3.9195   -5.8781    0.0000 N   0  0
    2.4283   -5.7163    0.0000 C   0  0
    4.8054   -4.6666    0.0000 C   0  0
    6.2966   -4.8284    0.0000 O   0  0
    4.2010   -3.2956    0.0000 C   0  0  2  0  0  0
    4.9531   -1.9978    0.0000 C   0  0
    3.9511   -0.8815    0.0000 S   0  0
    2.5987   -1.5004    0.0000 C   0  0  3  0  0  0
    1.2990   -0.7500    0.0000 C   0  0
    1.2990    0.7500    0.0000 C   0  0
    0.0000    1.5000    0.0000 C   0  0
   -1.2990    0.7500    0.0000 C   0  0
   -2.6003    1.4977    0.0000 N   0  0
   -3.8990    0.7455    0.0000 C   0  0
   -3.8964   -0.7545    0.0000 C   0  0
   -5.1996    1.4928    0.0000 O   0  0
   -1.2990   -0.7500    0.0000 C   0  0
    0.0000   -1.5000    0.0000 C   0  0
    2.7343   -2.9815    0.0000 N   0  0
  1  2  1  0
  2  3  1  0
  3  4  1  0
  4  5  1  0
  5  6  1  0
  6  7  1  0
  7  8  1  0
  8  9  1  0
  9 10  1  0
 10 11  1  0
 11 12  1  0
 12 13  1  0
 13 14  1  0
 14 15  1  0
 15 16  1  0
 16 17  1  0
 17 18  1  0
 18 19  1  0
 19 20  1  0
 19 21  1  0
 21 22  2  0
 23 21  1  1
 23 24  1  0
 24 25  1  0
 25 26  1  0
 26 27  1  4
 27 28  2  0
 28 29  1  0
 29 30  2  0
 30 31  1  0
 31 32  1  0
 32 33  1  0
 32 34  2  0
 30 35  1  0
 35 36  2  0
 36 27  1  0
 26 37  1  0
 37 23  1  0
M  END
> <assay_chembl_id>
CHEMBL1066495

> <assay_description>
Antiproliferative activity against human PPC1 cells after 96 hrs by SRB assay

> <document_journal>
Bioorg Med Chem

> <molecule_chembl_id>
CHEMBL597912

> <standard_value>
800

> <IC50_uM>
0.8

> <Activity>
Yes

> <Canonical_Smiles>
CCCCCCCCCCCCCCCCCCN(C)C(=O)[C@@H]1CSC(c2ccc(NC(C)=O)cc2)N1

$$$$

  SciTegic03142313312D

 32 36  0  0  1  0            999 V2000
   10.5341   -9.6411    0.0000 C   0  0
    9.7485  -10.9189    0.0000 C   0  0
   10.4627  -12.2379    0.0000 O   0  0
    8.2482  -10.8769    0.0000 N   0  0
    7.5336   -9.5571    0.0000 C   0  0
    6.0343   -9.5130    0.0000 C   0  0
    5.3228   -8.1924    0.0000 C   0  0
    6.1088   -6.9207    0.0000 C   0  0
    5.4984   -5.5497    0.0000 C   0  0  3  0  0  0
    4.0312   -5.2378    0.0000 N   0  0
    3.8933   -3.7570    0.0000 C   0  0  2  0  0  0
    2.5951   -3.0039    0.0000 C   0  0
    1.2948   -3.7516    0.0000 O   0  0
    2.5973   -1.5031    0.0000 N   0  0
    1.2990   -0.7500    0.0000 C   0  0
    1.2990    0.7500    0.0000 C   0  0
    0.0000    1.5000    0.0000 C   0  0
   -1.2990    0.7500    0.0000 C   0  0
   -2.5981    1.5000    0.0000 C   0  0
   -3.8971    0.7500    0.0000 C   0  0
   -5.1962    1.5000    0.0000 C   0  0
   -6.4952    0.7500    0.0000 C   0  0
   -6.4952   -0.7500    0.0000 C   0  0
   -5.1961   -1.5000    0.0000 C   0  0
   -3.8971   -0.7500    0.0000 C   0  0
   -2.5981   -1.5000    0.0000 C   0  0
   -1.2990   -0.7500    0.0000 C   0  0
    0.0000   -1.5000    0.0000 C   0  0
    5.2447   -3.1359    0.0000 C   0  0
    6.2484   -4.2507    0.0000 S   0  0
    7.6100   -6.9601    0.0000 C   0  0
    8.3215   -8.2806    0.0000 C   0  0
  1  2  1  0
  2  3  2  0
  2  4  1  0
  4  5  1  0
  5  6  2  0
  6  7  1  0
  7  8  2  0
  9  8  1  4
  9 10  1  0
 10 11  1  0
 11 12  1  6
 12 13  2  0
 12 14  1  0
 14 15  1  0
 15 16  2  0
 16 17  1  0
 17 18  2  0
 18 19  1  0
 19 20  2  0
 20 21  1  0
 21 22  2  0
 22 23  1  0
 23 24  2  0
 24 25  1  0
 25 20  1  0
 25 26  2  0
 26 27  1  0
 27 18  1  0
 27 28  2  0
 28 15  1  0
 11 29  1  0
 29 30  1  0
 30  9  1  0
  8 31  1  0
 31 32  2  0
 32  5  1  0
M  END
> <assay_chembl_id>
CHEMBL1066495

> <assay_description>
Antiproliferative activity against human PPC1 cells after 96 hrs by SRB assay

> <document_journal>
Bioorg Med Chem

> <molecule_chembl_id>
CHEMBL600380

> <standard_value>
700

> <IC50_uM>
0.7

> <Activity>
Yes

> <Canonical_Smiles>
CC(=O)Nc1ccc(C2N[C@H](C(=O)Nc3ccc4cc5ccccc5cc4c3)CS2)cc1

$$$$

  SciTegic03142313312D

 32 33  0  0  1  0            999 V2000
    1.3963  -29.1408    0.0000 C   0  0
    2.2816  -27.9299    0.0000 C   0  0
    1.6762  -26.5566    0.0000 C   0  0
    2.5620  -25.3451    0.0000 C   0  0
    1.9566  -23.9718    0.0000 C   0  0
    2.8425  -22.7603    0.0000 C   0  0
    2.2370  -21.3870    0.0000 C   0  0
    3.1229  -20.1755    0.0000 C   0  0
    2.5175  -18.8022    0.0000 C   0  0
    3.4033  -17.5907    0.0000 C   0  0
    2.7979  -16.2174    0.0000 C   0  0
    3.6837  -15.0058    0.0000 C   0  0
    3.0783  -13.6325    0.0000 C   0  0
    3.9641  -12.4210    0.0000 C   0  0
    3.3587  -11.0477    0.0000 C   0  0
    4.2445   -9.8362    0.0000 C   0  0
    3.6391   -8.4629    0.0000 C   0  0
    4.5250   -7.2514    0.0000 C   0  0
    3.9195   -5.8781    0.0000 N   0  0
    4.8054   -4.6666    0.0000 C   0  0
    6.2966   -4.8284    0.0000 O   0  0
    4.2010   -3.2956    0.0000 C   0  0  2  0  0  0
    4.9531   -1.9978    0.0000 C   0  0
    3.9511   -0.8815    0.0000 S   0  0
    2.5987   -1.5004    0.0000 C   0  0  3  0  0  0
    1.2990   -0.7500    0.0000 C   0  0
    1.2990    0.7500    0.0000 C   0  0
    0.0000    1.5000    0.0000 C   0  0
   -1.2990    0.7500    0.0000 C   0  0
   -1.2990   -0.7500    0.0000 C   0  0
    0.0000   -1.5000    0.0000 C   0  0
    2.7343   -2.9815    0.0000 N   0  0
  1  2  1  0
  2  3  1  0
  3  4  1  0
  4  5  1  0
  5  6  1  0
  6  7  1  0
  7  8  1  0
  8  9  1  0
  9 10  1  0
 10 11  2  0
 11 12  1  0
 12 13  1  0
 13 14  1  0
 14 15  1  0
 15 16  1  0
 16 17  1  0
 17 18  1  0
 18 19  1  0
 19 20  1  0
 20 21  2  0
 22 20  1  1
 22 23  1  0
 23 24  1  0
 24 25  1  0
 25 26  1  4
 26 27  2  0
 27 28  1  0
 28 29  2  0
 29 30  1  0
 30 31  2  0
 31 26  1  0
 25 32  1  0
 32 22  1  0
M  END
> <assay_chembl_id>
CHEMBL1066495

> <assay_description>
Antiproliferative activity against human PPC1 cells after 96 hrs by SRB assay

> <document_journal>
Bioorg Med Chem

> <molecule_chembl_id>
CHEMBL606211

> <standard_value>
600

> <IC50_uM>
0.6

> <Activity>
Yes

> <Canonical_Smiles>
CCCCCCCCC/C=C/CCCCCCCNC(=O)[C@@H]1CSC(c2ccccc2)N1

$$$$

  SciTegic03142313312D

 31 32  0  0  1  0            999 V2000
    1.6767  -26.5560    0.0000 C   0  0
    2.5620  -25.3451    0.0000 C   0  0
    1.9566  -23.9718    0.0000 C   0  0
    2.8425  -22.7603    0.0000 C   0  0
    2.2370  -21.3870    0.0000 C   0  0
    3.1229  -20.1755    0.0000 C   0  0
    2.5175  -18.8022    0.0000 C   0  0
    3.4033  -17.5907    0.0000 C   0  0
    2.7979  -16.2174    0.0000 C   0  0
    3.6837  -15.0058    0.0000 C   0  0
    3.0783  -13.6325    0.0000 C   0  0
    3.9641  -12.4210    0.0000 C   0  0
    3.3587  -11.0477    0.0000 C   0  0
    4.2445   -9.8362    0.0000 C   0  0
    3.6391   -8.4629    0.0000 C   0  0
    4.5250   -7.2514    0.0000 C   0  0
    3.9195   -5.8781    0.0000 N   0  0
    4.8054   -4.6666    0.0000 C   0  0
    6.2966   -4.8284    0.0000 O   0  0
    4.2010   -3.2956    0.0000 C   0  0  2  0  0  0
    4.9531   -1.9978    0.0000 C   0  0
    3.9511   -0.8815    0.0000 S   0  0
    2.5987   -1.5004    0.0000 C   0  0  3  0  0  0
    1.2990   -0.7500    0.0000 C   0  0
    1.2990    0.7500    0.0000 C   0  0
    0.0000    1.5000    0.0000 C   0  0
   -1.2990    0.7500    0.0000 C   0  0
   -2.5981    1.5000    0.0000 N   0  0
   -1.2990   -0.7500    0.0000 C   0  0
    0.0000   -1.5000    0.0000 C   0  0
    2.7343   -2.9815    0.0000 N   0  0
  1  2  1  0
  2  3  1  0
  3  4  1  0
  4  5  1  0
  5  6  1  0
  6  7  1  0
  7  8  1  0
  8  9  1  0
  9 10  1  0
 10 11  1  0
 11 12  1  0
 12 13  1  0
 13 14  1  0
 14 15  1  0
 15 16  1  0
 16 17  1  0
 17 18  1  0
 18 19  2  0
 20 18  1  1
 20 21  1  0
 21 22  1  0
 22 23  1  0
 23 24  1  4
 24 25  2  0
 25 26  1  0
 26 27  2  0
 27 28  1  0
 27 29  1  0
 29 30  2  0
 30 24  1  0
 23 31  1  0
 31 20  1  0
M  END
> <assay_chembl_id>
CHEMBL1066495

> <assay_description>
Antiproliferative activity against human PPC1 cells after 96 hrs by SRB assay

> <document_journal>
Bioorg Med Chem

> <molecule_chembl_id>
CHEMBL391250

> <standard_value>
600

> <IC50_uM>
0.6

> <Activity>
Yes

> <Canonical_Smiles>
CCCCCCCCCCCCCCCCNC(=O)[C@@H]1CSC(c2ccc(N)cc2)N1

$$$$

  SciTegic03142313312D

 35 36  0  0  1  0            999 V2000
    1.6767  -26.5560    0.0000 C   0  0
    2.5620  -25.3451    0.0000 C   0  0
    1.9566  -23.9718    0.0000 C   0  0
    2.8425  -22.7603    0.0000 C   0  0
    2.2370  -21.3870    0.0000 C   0  0
    3.1229  -20.1755    0.0000 C   0  0
    2.5175  -18.8022    0.0000 C   0  0
    3.4033  -17.5907    0.0000 C   0  0
    2.7979  -16.2174    0.0000 C   0  0
    3.6837  -15.0058    0.0000 C   0  0
    3.0783  -13.6325    0.0000 C   0  0
    3.9641  -12.4210    0.0000 C   0  0
    3.3587  -11.0477    0.0000 C   0  0
    4.2445   -9.8362    0.0000 C   0  0
    3.6391   -8.4629    0.0000 C   0  0
    4.5250   -7.2514    0.0000 C   0  0
    3.9195   -5.8781    0.0000 N   0  0
    4.8054   -4.6666    0.0000 C   0  0
    6.2966   -4.8284    0.0000 O   0  0
    4.2010   -3.2956    0.0000 C   0  0  2  0  0  0
    4.9531   -1.9978    0.0000 C   0  0
    3.9511   -0.8815    0.0000 S   0  0
    2.5987   -1.5004    0.0000 C   0  0  3  0  0  0
    1.2990   -0.7500    0.0000 C   0  0
    1.2990    0.7500    0.0000 C   0  0
    0.0000    1.5000    0.0000 C   0  0
   -1.2990    0.7500    0.0000 C   0  0
   -2.6003    1.4977    0.0000 N   0  0
   -3.8990    0.7455    0.0000 C   0  0
   -3.8964   -0.7545    0.0000 O   0  0
   -5.2003    1.4932    0.0000 C   0  0
   -6.4983    0.7413    0.0000 Cl  0  0
   -1.2990   -0.7500    0.0000 C   0  0
    0.0000   -1.5000    0.0000 C   0  0
    2.7343   -2.9815    0.0000 N   0  0
  1  2  1  0
  2  3  1  0
  3  4  1  0
  4  5  1  0
  5  6  1  0
  6  7  1  0
  7  8  1  0
  8  9  1  0
  9 10  1  0
 10 11  1  0
 11 12  1  0
 12 13  1  0
 13 14  1  0
 14 15  1  0
 15 16  1  0
 16 17  1  0
 17 18  1  0
 18 19  2  0
 20 18  1  1
 20 21  1  0
 21 22  1  0
 22 23  1  0
 23 24  1  4
 24 25  2  0
 25 26  1  0
 26 27  2  0
 27 28  1  0
 28 29  1  0
 29 30  2  0
 29 31  1  0
 31 32  1  0
 27 33  1  0
 33 34  2  0
 34 24  1  0
 23 35  1  0
 35 20  1  0
M  END
> <assay_chembl_id>
CHEMBL1066495

> <assay_description>
Antiproliferative activity against human PPC1 cells after 96 hrs by SRB assay

> <document_journal>
Bioorg Med Chem

> <molecule_chembl_id>
CHEMBL598527

> <standard_value>
400

> <IC50_uM>
0.4

> <Activity>
Yes

> <Canonical_Smiles>
CCCCCCCCCCCCCCCCNC(=O)[C@@H]1CSC(c2ccc(NC(=O)CCl)cc2)N1

$$$$

  SciTegic03142313312D

 34 35  0  0  1  0            999 V2000
    1.6767  -26.5560    0.0000 C   0  0
    2.5620  -25.3451    0.0000 C   0  0
    1.9566  -23.9718    0.0000 C   0  0
    2.8425  -22.7603    0.0000 C   0  0
    2.2370  -21.3870    0.0000 C   0  0
    3.1229  -20.1755    0.0000 C   0  0
    2.5175  -18.8022    0.0000 C   0  0
    3.4033  -17.5907    0.0000 C   0  0
    2.7979  -16.2174    0.0000 C   0  0
    3.6837  -15.0058    0.0000 C   0  0
    3.0783  -13.6325    0.0000 C   0  0
    3.9641  -12.4210    0.0000 C   0  0
    3.3587  -11.0477    0.0000 C   0  0
    4.2445   -9.8362    0.0000 C   0  0
    3.6391   -8.4629    0.0000 C   0  0
    4.5250   -7.2514    0.0000 C   0  0
    3.9195   -5.8781    0.0000 N   0  0
    4.8054   -4.6666    0.0000 C   0  0
    6.2966   -4.8284    0.0000 O   0  0
    4.2010   -3.2956    0.0000 C   0  0  2  0  0  0
    4.9531   -1.9978    0.0000 C   0  0
    3.9511   -0.8815    0.0000 S   0  0
    2.5987   -1.5004    0.0000 C   0  0  3  0  0  0
    1.2990   -0.7500    0.0000 C   0  0
    1.2990    0.7500    0.0000 C   0  0
    0.0000    1.5000    0.0000 C   0  0
   -1.2990    0.7500    0.0000 C   0  0
   -1.2990   -0.7500    0.0000 C   0  0
   -2.5972   -1.5031    0.0000 N   0  0
   -2.5951   -3.0039    0.0000 C   0  0
   -1.2948   -3.7517    0.0000 C   0  0
   -3.8926   -3.7566    0.0000 O   0  0
    0.0000   -1.5000    0.0000 C   0  0
    2.7343   -2.9815    0.0000 N   0  0
  1  2  1  0
  2  3  1  0
  3  4  1  0
  4  5  1  0
  5  6  1  0
  6  7  1  0
  7  8  1  0
  8  9  1  0
  9 10  1  0
 10 11  1  0
 11 12  1  0
 12 13  1  0
 13 14  1  0
 14 15  1  0
 15 16  1  0
 16 17  1  0
 17 18  1  0
 18 19  2  0
 20 18  1  1
 20 21  1  0
 21 22  1  0
 22 23  1  0
 23 24  1  4
 24 25  2  0
 25 26  1  0
 26 27  2  0
 27 28  1  0
 28 29  1  0
 29 30  1  0
 30 31  1  0
 30 32  2  0
 28 33  2  0
 33 24  1  0
 23 34  1  0
 34 20  1  0
M  END
> <assay_chembl_id>
CHEMBL1066495

> <assay_description>
Antiproliferative activity against human PPC1 cells after 96 hrs by SRB assay

> <document_journal>
Bioorg Med Chem

> <molecule_chembl_id>
CHEMBL598519

> <standard_value>
500

> <IC50_uM>
0.5

> <Activity>
Yes

> <Canonical_Smiles>
CCCCCCCCCCCCCCCCNC(=O)[C@@H]1CSC(c2cccc(NC(C)=O)c2)N1

$$$$

  SciTegic03142313312D

 37 38  0  0  1  0            999 V2000
    0.5096  -30.3522    0.0000 C   0  0
   -0.0955  -28.9797    0.0000 C   0  0
    0.7904  -27.7681    0.0000 C   0  0
    0.1850  -26.3948    0.0000 C   0  0
    1.0708  -25.1833    0.0000 C   0  0
    0.4654  -23.8100    0.0000 C   0  0
    1.3512  -22.5985    0.0000 C   0  0
    0.7458  -21.2252    0.0000 C   0  0
    1.6316  -20.0137    0.0000 C   0  0
    2.5175  -18.8022    0.0000 C   0  0
    3.4033  -17.5907    0.0000 C   0  0
    2.7979  -16.2174    0.0000 C   0  0
    3.6837  -15.0058    0.0000 C   0  0
    3.0783  -13.6325    0.0000 C   0  0
    3.9641  -12.4210    0.0000 C   0  0
    3.3587  -11.0477    0.0000 C   0  0
    4.2445   -9.8362    0.0000 C   0  0
    3.6391   -8.4629    0.0000 C   0  0
    4.5250   -7.2514    0.0000 C   0  0
    3.9195   -5.8781    0.0000 N   0  0
    4.8054   -4.6666    0.0000 C   0  0
    6.2966   -4.8284    0.0000 O   0  0
    4.2010   -3.2956    0.0000 C   0  0  2  0  0  0
    4.9531   -1.9978    0.0000 C   0  0
    3.9511   -0.8815    0.0000 S   0  0
    2.5987   -1.5004    0.0000 C   0  0  3  0  0  0
    1.2990   -0.7500    0.0000 C   0  0
    1.2990    0.7500    0.0000 C   0  0
    0.0000    1.5000    0.0000 C   0  0
   -1.2990    0.7500    0.0000 C   0  0
   -2.6003    1.4977    0.0000 N   0  0
   -3.8990    0.7455    0.0000 C   0  0
   -3.8964   -0.7545    0.0000 C   0  0
   -5.1996    1.4928    0.0000 O   0  0
   -1.2990   -0.7500    0.0000 C   0  0
    0.0000   -1.5000    0.0000 C   0  0
    2.7343   -2.9815    0.0000 N   0  0
  1  2  1  0
  2  3  1  0
  3  4  1  0
  4  5  1  0
  5  6  1  0
  6  7  1  0
  7  8  1  0
  8  9  1  0
  9 10  3  0
 10 11  1  0
 11 12  1  0
 12 13  1  0
 13 14  1  0
 14 15  1  0
 15 16  1  0
 16 17  1  0
 17 18  1  0
 18 19  1  0
 19 20  1  0
 20 21  1  0
 21 22  2  0
 23 21  1  1
 23 24  1  0
 24 25  1  0
 25 26  1  0
 26 27  1  4
 27 28  2  0
 28 29  1  0
 29 30  2  0
 30 31  1  0
 31 32  1  0
 32 33  1  0
 32 34  2  0
 30 35  1  0
 35 36  2  0
 36 27  1  0
 26 37  1  0
 37 23  1  0
M  END
> <assay_chembl_id>
CHEMBL1066495

> <assay_description>
Antiproliferative activity against human PPC1 cells after 96 hrs by SRB assay

> <document_journal>
Bioorg Med Chem

> <molecule_chembl_id>
CHEMBL602458

> <standard_value>
700

> <IC50_uM>
0.7

> <Activity>
Yes

> <Canonical_Smiles>
CCCCCCCCC#CCCCCCCCCCNC(=O)[C@@H]1CSC(c2ccc(NC(C)=O)cc2)N1

$$$$

  SciTegic03142313312D

 34 35  0  0  1  0            999 V2000
    1.6767  -26.5560    0.0000 C   0  0
    2.5620  -25.3451    0.0000 C   0  0
    1.9566  -23.9718    0.0000 C   0  0
    2.8425  -22.7603    0.0000 C   0  0
    2.2370  -21.3870    0.0000 C   0  0
    3.1229  -20.1755    0.0000 C   0  0
    2.5175  -18.8022    0.0000 C   0  0
    3.4033  -17.5907    0.0000 C   0  0
    2.7979  -16.2174    0.0000 C   0  0
    3.6837  -15.0058    0.0000 C   0  0
    3.0783  -13.6325    0.0000 C   0  0
    3.9641  -12.4210    0.0000 C   0  0
    3.3587  -11.0477    0.0000 C   0  0
    4.2445   -9.8362    0.0000 C   0  0
    3.6391   -8.4629    0.0000 C   0  0
    4.5250   -7.2514    0.0000 C   0  0
    3.9195   -5.8781    0.0000 N   0  0
    4.8054   -4.6666    0.0000 C   0  0
    6.2966   -4.8284    0.0000 O   0  0
    4.2010   -3.2956    0.0000 C   0  0  2  0  0  0
    4.9531   -1.9978    0.0000 C   0  0
    3.9511   -0.8815    0.0000 S   0  0
    2.5987   -1.5004    0.0000 C   0  0  3  0  0  0
    1.2990   -0.7500    0.0000 C   0  0
    1.2990    0.7500    0.0000 C   0  0
    0.0000    1.5000    0.0000 C   0  0
   -1.2990    0.7500    0.0000 C   0  0
   -2.6003    1.4977    0.0000 N   0  0
   -3.8990    0.7455    0.0000 C   0  0
   -3.8964   -0.7545    0.0000 N   0  0
   -5.1996    1.4928    0.0000 O   0  0
   -1.2990   -0.7500    0.0000 C   0  0
    0.0000   -1.5000    0.0000 C   0  0
    2.7343   -2.9815    0.0000 N   0  0
  1  2  1  0
  2  3  1  0
  3  4  1  0
  4  5  1  0
  5  6  1  0
  6  7  1  0
  7  8  1  0
  8  9  1  0
  9 10  1  0
 10 11  1  0
 11 12  1  0
 12 13  1  0
 13 14  1  0
 14 15  1  0
 15 16  1  0
 16 17  1  0
 17 18  1  0
 18 19  2  0
 20 18  1  1
 20 21  1  0
 21 22  1  0
 22 23  1  0
 23 24  1  4
 24 25  2  0
 25 26  1  0
 26 27  2  0
 27 28  1  0
 28 29  1  0
 29 30  1  0
 29 31  2  0
 27 32  1  0
 32 33  2  0
 33 24  1  0
 23 34  1  0
 34 20  1  0
M  END
> <assay_chembl_id>
CHEMBL1066495

> <assay_description>
Antiproliferative activity against human PPC1 cells after 96 hrs by SRB assay

> <document_journal>
Bioorg Med Chem

> <molecule_chembl_id>
CHEMBL598735

> <standard_value>
500

> <IC50_uM>
0.5

> <Activity>
Yes

> <Canonical_Smiles>
CCCCCCCCCCCCCCCCNC(=O)[C@@H]1CSC(c2ccc(NC(N)=O)cc2)N1

$$$$

  SciTegic03142313312D

 34 35  0  0  1  0            999 V2000
    1.9571  -23.9711    0.0000 C   0  0
    2.8425  -22.7603    0.0000 C   0  0
    2.2370  -21.3870    0.0000 C   0  0
    3.1229  -20.1755    0.0000 C   0  0
    2.5175  -18.8022    0.0000 C   0  0
    3.4033  -17.5907    0.0000 C   0  0
    2.7979  -16.2174    0.0000 C   0  0
    3.6837  -15.0058    0.0000 C   0  0
    3.0783  -13.6325    0.0000 C   0  0
    3.9641  -12.4210    0.0000 C   0  0
    3.3587  -11.0477    0.0000 C   0  0
    4.2445   -9.8362    0.0000 C   0  0
    3.6391   -8.4629    0.0000 C   0  0
    4.5250   -7.2514    0.0000 C   0  0
    3.9195   -5.8781    0.0000 N   0  0
    4.8054   -4.6666    0.0000 C   0  0
    6.2966   -4.8284    0.0000 O   0  0
    4.2010   -3.2956    0.0000 C   0  0  2  0  0  0
    4.9531   -1.9978    0.0000 C   0  0
    3.9511   -0.8815    0.0000 S   0  0
    2.5987   -1.5004    0.0000 C   0  0  3  0  0  0
    1.2990   -0.7500    0.0000 C   0  0
    1.2990    0.7500    0.0000 C   0  0
    0.0000    1.5000    0.0000 C   0  0
    0.0031    3.0008    0.0000 O   0  0
    1.3032    3.7490    0.0000 C   0  0
   -1.2990    0.7500    0.0000 C   0  0
   -2.6003    1.4977    0.0000 O   0  0
   -3.8983    0.7459    0.0000 C   0  0
   -1.2990   -0.7500    0.0000 C   0  0
   -2.5972   -1.5031    0.0000 O   0  0
   -2.5951   -3.0031    0.0000 C   0  0
    0.0000   -1.5000    0.0000 C   0  0
    2.7343   -2.9815    0.0000 N   0  0
  1  2  1  0
  2  3  1  0
  3  4  1  0
  4  5  1  0
  5  6  1  0
  6  7  1  0
  7  8  1  0
  8  9  1  0
  9 10  1  0
 10 11  1  0
 11 12  1  0
 12 13  1  0
 13 14  1  0
 14 15  1  0
 15 16  1  0
 16 17  2  0
 18 16  1  1
 18 19  1  0
 19 20  1  0
 20 21  1  0
 21 22  1  4
 22 23  2  0
 23 24  1  0
 24 25  1  0
 25 26  1  0
 24 27  2  0
 27 28  1  0
 28 29  1  0
 27 30  1  0
 30 31  1  0
 31 32  1  0
 30 33  2  0
 33 22  1  0
 21 34  1  0
 34 18  1  0
M  END
> <assay_chembl_id>
CHEMBL1066495

> <assay_description>
Antiproliferative activity against human PPC1 cells after 96 hrs by SRB assay

> <document_journal>
Bioorg Med Chem

> <molecule_chembl_id>
CHEMBL237542

> <standard_value>
600

> <IC50_uM>
0.6

> <Activity>
Yes

> <Canonical_Smiles>
CCCCCCCCCCCCCCNC(=O)[C@@H]1CSC(c2cc(OC)c(OC)c(OC)c2)N1

$$$$

  SciTegic03142313312D

 34 35  0  0  1  0            999 V2000
    1.9571  -23.9711    0.0000 C   0  0
    2.8425  -22.7603    0.0000 C   0  0
    2.2370  -21.3870    0.0000 C   0  0
    3.1229  -20.1755    0.0000 C   0  0
    2.5175  -18.8022    0.0000 C   0  0
    3.4033  -17.5907    0.0000 C   0  0
    2.7979  -16.2174    0.0000 C   0  0
    3.6837  -15.0058    0.0000 C   0  0
    3.0783  -13.6325    0.0000 C   0  0
    3.9641  -12.4210    0.0000 C   0  0
    3.3587  -11.0477    0.0000 C   0  0
    4.2445   -9.8362    0.0000 C   0  0
    3.6391   -8.4629    0.0000 C   0  0
    4.5250   -7.2514    0.0000 C   0  0
    3.9195   -5.8781    0.0000 N   0  0
    4.8054   -4.6666    0.0000 C   0  0
    6.2966   -4.8284    0.0000 O   0  0
    4.2010   -3.2956    0.0000 C   0  0  1  0  0  0
    4.9531   -1.9978    0.0000 C   0  0
    3.9511   -0.8815    0.0000 S   0  0
    2.5987   -1.5004    0.0000 C   0  0  3  0  0  0
    1.2990   -0.7500    0.0000 C   0  0
    1.2990    0.7500    0.0000 C   0  0
    0.0000    1.5000    0.0000 C   0  0
    0.0031    3.0008    0.0000 O   0  0
    1.3032    3.7490    0.0000 C   0  0
   -1.2990    0.7500    0.0000 C   0  0
   -2.6003    1.4977    0.0000 O   0  0
   -3.8983    0.7459    0.0000 C   0  0
   -1.2990   -0.7500    0.0000 C   0  0
   -2.5972   -1.5031    0.0000 O   0  0
   -2.5951   -3.0031    0.0000 C   0  0
    0.0000   -1.5000    0.0000 C   0  0
    2.7343   -2.9815    0.0000 N   0  0
  1  2  1  0
  2  3  1  0
  3  4  1  0
  4  5  1  0
  5  6  1  0
  6  7  1  0
  7  8  1  0
  8  9  1  0
  9 10  1  0
 10 11  1  0
 11 12  1  0
 12 13  1  0
 13 14  1  0
 14 15  1  0
 15 16  1  0
 16 17  2  0
 18 16  1  6
 18 19  1  0
 19 20  1  0
 20 21  1  0
 21 22  1  4
 22 23  2  0
 23 24  1  0
 24 25  1  0
 25 26  1  0
 24 27  2  0
 27 28  1  0
 28 29  1  0
 27 30  1  0
 30 31  1  0
 31 32  1  0
 30 33  2  0
 33 22  1  0
 21 34  1  0
 34 18  1  0
M  END
> <assay_chembl_id>
CHEMBL1066495

> <assay_description>
Antiproliferative activity against human PPC1 cells after 96 hrs by SRB assay

> <document_journal>
Bioorg Med Chem

> <molecule_chembl_id>
CHEMBL235865

> <standard_value>
700

> <IC50_uM>
0.7

> <Activity>
Yes

> <Canonical_Smiles>
CCCCCCCCCCCCCCNC(=O)[C@H]1CSC(c2cc(OC)c(OC)c(OC)c2)N1

$$$$

  SciTegic03142313312D

 25 27  0  0  0  0            999 V2000
    3.8983   -0.7459    0.0000 C   0  0
    2.6003   -1.4977    0.0000 O   0  0
    1.2990   -0.7500    0.0000 C   0  0
    1.2990    0.7500    0.0000 C   0  0
    0.0000    1.5000    0.0000 C   0  0
   -0.0031    3.0008    0.0000 C   0  0
    1.2946    3.7531    0.0000 O   0  0
   -1.3039    3.7494    0.0000 C   0  0
   -1.4470    5.2297    0.0000 C   0  0
   -2.9153    5.5365    0.0000 N   0  0
   -3.6607    4.2349    0.0000 C   0  0
   -5.1527    4.0728    0.0000 C   0  0
   -6.1233    5.2100    0.0000 C   0  0
   -7.5981    4.9362    0.0000 C   0  0
   -8.0984    3.5221    0.0000 C   0  0
   -7.1240    2.3818    0.0000 C   0  0
   -5.6491    2.6555    0.0000 C   0  0
   -2.6532    3.1236    0.0000 N   0  0
   -1.2990    0.7500    0.0000 C   0  0
   -1.2990   -0.7500    0.0000 C   0  0
   -2.6003   -1.4978    0.0000 O   0  0
   -3.8983   -0.7459    0.0000 C   0  0
    0.0000   -1.5000    0.0000 C   0  0
    0.0031   -3.0008    0.0000 O   0  0
    1.3032   -3.7490    0.0000 C   0  0
  1  2  1  0
  2  3  1  0
  3  4  2  0
  4  5  1  0
  5  6  1  0
  6  7  2  0
  6  8  1  0
  8  9  2  0
  9 10  1  0
 10 11  1  0
 11 12  1  0
 12 13  2  0
 13 14  1  0
 14 15  2  0
 15 16  1  0
 16 17  2  0
 17 12  1  0
 11 18  2  0
 18  8  1  0
  5 19  2  0
 19 20  1  0
 20 21  1  0
 21 22  1  0
 20 23  2  0
 23  3  1  0
 23 24  1  0
 24 25  1  0
M  END
> <assay_chembl_id>
CHEMBL1272406

> <assay_description>
Cytotoxicity against human PPC1 cells after 48 hrs by sulforhodamine B assay

> <document_journal>
J Med Chem

> <molecule_chembl_id>
CHEMBL1271737

> <standard_value>
130

> <IC50_uM>
0.13

> <Activity>
Yes

> <Canonical_Smiles>
COc1cc(C(=O)c2c[nH]c(-c3ccccc3)n2)cc(OC)c1OC

$$$$

  SciTegic03142313312D

 20 22  0  0  0  0            999 V2000
    3.8976   -0.7553    0.0000 O   0  0
    2.5973   -1.5031    0.0000 C   0  0
    1.2990   -0.7500    0.0000 C   0  0
    1.2990    0.7500    0.0000 C   0  0
    0.0000    1.5000    0.0000 C   0  0
   -1.2990    0.7500    0.0000 C   0  0
   -2.5981    1.5000    0.0000 F   0  0
   -1.2990   -0.7500    0.0000 C   0  0
    0.0000   -1.5000    0.0000 C   0  0
    2.5951   -3.0039    0.0000 C   0  0
    3.8056   -3.8679    0.0000 C   0  0
    3.3372   -5.2929    0.0000 N   0  0
    1.8372   -5.2877    0.0000 C   0  0
    0.9508   -6.4988    0.0000 C   0  0
    1.4504   -7.9079    0.0000 C   0  0
    0.4759   -9.0482    0.0000 C   0  0
   -0.9989   -8.7745    0.0000 C   0  0
   -1.4993   -7.3604    0.0000 C   0  0
   -0.5248   -6.2201    0.0000 C   0  0
    1.3786   -3.8595    0.0000 N   0  0
  1  2  2  0
  2  3  1  0
  3  4  2  0
  4  5  1  0
  5  6  2  0
  6  7  1  0
  6  8  1  0
  8  9  2  0
  9  3  1  0
  2 10  1  0
 10 11  2  0
 11 12  1  0
 12 13  1  0
 13 14  1  0
 14 15  2  0
 15 16  1  0
 16 17  2  0
 17 18  1  0
 18 19  2  0
 19 14  1  0
 13 20  2  0
 20 10  1  0
M  END
> <assay_chembl_id>
CHEMBL1272406

> <assay_description>
Cytotoxicity against human PPC1 cells after 48 hrs by sulforhodamine B assay

> <document_journal>
J Med Chem

> <molecule_chembl_id>
CHEMBL1269807

> <standard_value>
570

> <IC50_uM>
0.57

> <Activity>
Yes

> <Canonical_Smiles>
O=C(c1ccc(F)cc1)c1c[nH]c(-c2ccccc2)n1

$$$$

  SciTegic03142313312D

 26 28  0  0  0  0            999 V2000
    3.8983   -0.7459    0.0000 C   0  0
    2.6003   -1.4977    0.0000 O   0  0
    1.2990   -0.7500    0.0000 C   0  0
    1.2990    0.7500    0.0000 C   0  0
    0.0000    1.5000    0.0000 C   0  0
   -0.0031    3.0008    0.0000 C   0  0
    1.2946    3.7531    0.0000 O   0  0
   -1.3039    3.7494    0.0000 C   0  0
   -1.4470    5.2297    0.0000 C   0  0
   -2.9153    5.5365    0.0000 N   0  0
   -3.6607    4.2349    0.0000 C   0  0
   -5.1527    4.0728    0.0000 C   0  0
   -6.1233    5.2100    0.0000 C   0  0
   -7.5981    4.9362    0.0000 C   0  0
   -8.0984    3.5221    0.0000 C   0  0
   -9.5732    3.2484    0.0000 F   0  0
   -7.1240    2.3818    0.0000 C   0  0
   -5.6491    2.6555    0.0000 C   0  0
   -2.6532    3.1236    0.0000 N   0  0
   -1.2990    0.7500    0.0000 C   0  0
   -1.2990   -0.7500    0.0000 C   0  0
   -2.6003   -1.4978    0.0000 O   0  0
   -3.8983   -0.7459    0.0000 C   0  0
    0.0000   -1.5000    0.0000 C   0  0
    0.0031   -3.0008    0.0000 O   0  0
    1.3032   -3.7490    0.0000 C   0  0
  1  2  1  0
  2  3  1  0
  3  4  2  0
  4  5  1  0
  5  6  1  0
  6  7  2  0
  6  8  1  0
  8  9  2  0
  9 10  1  0
 10 11  1  0
 11 12  1  0
 12 13  2  0
 13 14  1  0
 14 15  2  0
 15 16  1  0
 15 17  1  0
 17 18  2  0
 18 12  1  0
 11 19  2  0
 19  8  1  0
  5 20  2  0
 20 21  1  0
 21 22  1  0
 22 23  1  0
 21 24  2  0
 24  3  1  0
 24 25  1  0
 25 26  1  0
M  END
> <assay_chembl_id>
CHEMBL1272406

> <assay_description>
Cytotoxicity against human PPC1 cells after 48 hrs by sulforhodamine B assay

> <document_journal>
J Med Chem

> <molecule_chembl_id>
CHEMBL1271912

> <standard_value>
81

> <IC50_uM>
0.081

> <Activity>
Yes

> <Canonical_Smiles>
COc1cc(C(=O)c2c[nH]c(-c3ccc(F)cc3)n2)cc(OC)c1OC

$$$$

  SciTegic03142313312D

 27 29  0  0  0  0            999 V2000
    2.5951   -3.0031    0.0000 C   0  0
    2.5973   -1.5031    0.0000 O   0  0
    1.2990   -0.7500    0.0000 C   0  0
    1.2990    0.7500    0.0000 C   0  0
    0.0000    1.5000    0.0000 C   0  0
   -1.2990    0.7500    0.0000 C   0  0
   -2.5987    1.5004    0.0000 C   0  0
   -2.7390    2.9810    0.0000 N   0  0
   -4.2067    3.2905    0.0000 C   0  0
   -4.8211    4.6570    0.0000 C   0  0
   -3.9435    5.8735    0.0000 O   0  0
   -6.3142    4.8094    0.0000 C   0  0
   -6.9313    6.1766    0.0000 C   0  0
   -8.4239    6.3258    0.0000 C   0  0
   -9.0384    7.6950    0.0000 O   0  0
   -8.1612    8.9118    0.0000 C   0  0
   -9.2994    5.1078    0.0000 C   0  0
  -10.7931    5.2541    0.0000 O   0  0
  -11.6669    4.0348    0.0000 C   0  0
   -8.6823    3.7406    0.0000 C   0  0
   -9.5558    2.5202    0.0000 O   0  0
   -8.9369    1.1538    0.0000 C   0  0
   -7.1898    3.5914    0.0000 C   0  0
   -4.9546    1.9903    0.0000 C   0  0
   -3.9492    0.8772    0.0000 N   0  0
   -1.2990   -0.7500    0.0000 C   0  0
    0.0000   -1.5000    0.0000 C   0  0
  1  2  1  0
  2  3  1  0
  3  4  2  0
  4  5  1  0
  5  6  2  0
  6  7  1  0
  7  8  2  0
  8  9  1  0
  9 10  1  0
 10 11  2  0
 10 12  1  0
 12 13  2  0
 13 14  1  0
 14 15  1  0
 15 16  1  0
 14 17  2  0
 17 18  1  0
 18 19  1  0
 17 20  1  0
 20 21  1  0
 21 22  1  0
 20 23  2  0
 23 12  1  0
  9 24  2  0
 24 25  1  0
 25  7  1  0
  6 26  1  0
 26 27  2  0
 27  3  1  0
M  END
> <assay_chembl_id>
CHEMBL1272406

> <assay_description>
Cytotoxicity against human PPC1 cells after 48 hrs by sulforhodamine B assay

> <document_journal>
J Med Chem

> <molecule_chembl_id>
CHEMBL1271967

> <standard_value>
34

> <IC50_uM>
0.034

> <Activity>
Yes

> <Canonical_Smiles>
COc1ccc(-c2nc(C(=O)c3cc(OC)c(OC)c(OC)c3)c[nH]2)cc1

$$$$

  SciTegic03142313312D

 22 24  0  0  0  0            999 V2000
    2.5951   -3.0031    0.0000 C   0  0
    2.5973   -1.5031    0.0000 O   0  0
    1.2990   -0.7500    0.0000 C   0  0
    1.2990    0.7500    0.0000 C   0  0
    0.0000    1.5000    0.0000 C   0  0
   -1.2990    0.7500    0.0000 C   0  0
   -2.5987    1.5004    0.0000 C   0  0
   -2.7390    2.9810    0.0000 N   0  0
   -4.2067    3.2905    0.0000 C   0  0
   -4.8211    4.6570    0.0000 C   0  0
   -3.9435    5.8735    0.0000 O   0  0
   -6.3142    4.8094    0.0000 C   0  0
   -6.9313    6.1766    0.0000 C   0  0
   -8.4239    6.3258    0.0000 C   0  0
   -9.2994    5.1078    0.0000 C   0  0
  -10.7919    5.2570    0.0000 F   0  0
   -8.6823    3.7406    0.0000 C   0  0
   -7.1898    3.5914    0.0000 C   0  0
   -4.9546    1.9903    0.0000 C   0  0
   -3.9492    0.8772    0.0000 N   0  0
   -1.2990   -0.7500    0.0000 C   0  0
    0.0000   -1.5000    0.0000 C   0  0
  1  2  1  0
  2  3  1  0
  3  4  2  0
  4  5  1  0
  5  6  2  0
  6  7  1  0
  7  8  2  0
  8  9  1  0
  9 10  1  0
 10 11  2  0
 10 12  1  0
 12 13  2  0
 13 14  1  0
 14 15  2  0
 15 16  1  0
 15 17  1  0
 17 18  2  0
 18 12  1  0
  9 19  2  0
 19 20  1  0
 20  7  1  0
  6 21  1  0
 21 22  2  0
 22  3  1  0
M  END
> <assay_chembl_id>
CHEMBL1272406

> <assay_description>
Cytotoxicity against human PPC1 cells after 48 hrs by sulforhodamine B assay

> <document_journal>
J Med Chem

> <molecule_chembl_id>
CHEMBL1271968

> <standard_value>
29

> <IC50_uM>
0.029

> <Activity>
Yes

> <Canonical_Smiles>
COc1ccc(-c2nc(C(=O)c3ccc(F)cc3)c[nH]2)cc1

$$$$

  SciTegic03142313312D

 26 28  0  0  0  0            999 V2000
    3.8983   -0.7459    0.0000 C   0  0
    2.6003   -1.4977    0.0000 O   0  0
    1.2990   -0.7500    0.0000 C   0  0
    1.2990    0.7500    0.0000 C   0  0
    0.0000    1.5000    0.0000 C   0  0
   -0.0031    3.0008    0.0000 C   0  0
    1.2946    3.7531    0.0000 O   0  0
   -1.3039    3.7494    0.0000 C   0  0
   -1.4470    5.2297    0.0000 C   0  0
   -2.9153    5.5365    0.0000 N   0  0
   -3.6607    4.2349    0.0000 C   0  0
   -5.1527    4.0728    0.0000 C   0  0
   -6.1233    5.2100    0.0000 C   0  0
   -7.5981    4.9362    0.0000 C   0  0
   -8.0984    3.5221    0.0000 C   0  0
   -9.5732    3.2484    0.0000 C   0  0
   -7.1240    2.3818    0.0000 C   0  0
   -5.6491    2.6555    0.0000 C   0  0
   -2.6532    3.1236    0.0000 N   0  0
   -1.2990    0.7500    0.0000 C   0  0
   -1.2990   -0.7500    0.0000 C   0  0
   -2.6003   -1.4978    0.0000 O   0  0
   -3.8983   -0.7459    0.0000 C   0  0
    0.0000   -1.5000    0.0000 C   0  0
    0.0031   -3.0008    0.0000 O   0  0
    1.3032   -3.7490    0.0000 C   0  0
  1  2  1  0
  2  3  1  0
  3  4  2  0
  4  5  1  0
  5  6  1  0
  6  7  2  0
  6  8  1  0
  8  9  2  0
  9 10  1  0
 10 11  1  0
 11 12  1  0
 12 13  2  0
 13 14  1  0
 14 15  2  0
 15 16  1  0
 15 17  1  0
 17 18  2  0
 18 12  1  0
 11 19  2  0
 19  8  1  0
  5 20  2  0
 20 21  1  0
 21 22  1  0
 22 23  1  0
 21 24  2  0
 24  3  1  0
 24 25  1  0
 25 26  1  0
M  END
> <assay_chembl_id>
CHEMBL1272406

> <assay_description>
Cytotoxicity against human PPC1 cells after 48 hrs by sulforhodamine B assay

> <document_journal>
J Med Chem

> <molecule_chembl_id>
CHEMBL1272023

> <standard_value>
11

> <IC50_uM>
0.011

> <Activity>
Yes

> <Canonical_Smiles>
COc1cc(C(=O)c2c[nH]c(-c3ccc(C)cc3)n2)cc(OC)c1OC

$$$$

  SciTegic03142313312D

 21 23  0  0  0  0            999 V2000
    2.5981   -1.5000    0.0000 C   0  0
    1.2990   -0.7500    0.0000 C   0  0
    1.2990    0.7500    0.0000 C   0  0
    0.0000    1.5000    0.0000 C   0  0
   -1.2990    0.7500    0.0000 C   0  0
   -2.5987    1.5004    0.0000 C   0  0
   -2.7390    2.9810    0.0000 N   0  0
   -4.2067    3.2905    0.0000 C   0  0
   -4.8211    4.6570    0.0000 C   0  0
   -3.9435    5.8735    0.0000 O   0  0
   -6.3142    4.8094    0.0000 C   0  0
   -6.9313    6.1766    0.0000 C   0  0
   -8.4239    6.3258    0.0000 C   0  0
   -9.2994    5.1078    0.0000 C   0  0
  -10.7919    5.2570    0.0000 F   0  0
   -8.6823    3.7406    0.0000 C   0  0
   -7.1898    3.5914    0.0000 C   0  0
   -4.9546    1.9903    0.0000 C   0  0
   -3.9492    0.8772    0.0000 N   0  0
   -1.2990   -0.7500    0.0000 C   0  0
    0.0000   -1.5000    0.0000 C   0  0
  1  2  1  0
  2  3  2  0
  3  4  1  0
  4  5  2  0
  5  6  1  0
  6  7  2  0
  7  8  1  0
  8  9  1  0
  9 10  2  0
  9 11  1  0
 11 12  2  0
 12 13  1  0
 13 14  2  0
 14 15  1  0
 14 16  1  0
 16 17  2  0
 17 11  1  0
  8 18  2  0
 18 19  1  0
 19  6  1  0
  5 20  1  0
 20 21  2  0
 21  2  1  0
M  END
> <assay_chembl_id>
CHEMBL1272406

> <assay_description>
Cytotoxicity against human PPC1 cells after 48 hrs by sulforhodamine B assay

> <document_journal>
J Med Chem

> <molecule_chembl_id>
CHEMBL1272024

> <standard_value>
54

> <IC50_uM>
0.054

> <Activity>
Yes

> <Canonical_Smiles>
Cc1ccc(-c2nc(C(=O)c3ccc(F)cc3)c[nH]2)cc1

$$$$

  SciTegic03142313312D

 26 28  0  0  0  0            999 V2000
    3.8983   -0.7459    0.0000 C   0  0
    2.6003   -1.4977    0.0000 O   0  0
    1.2990   -0.7500    0.0000 C   0  0
    1.2990    0.7500    0.0000 C   0  0
    0.0000    1.5000    0.0000 C   0  0
   -0.0031    3.0008    0.0000 C   0  0
    1.2946    3.7531    0.0000 O   0  0
   -1.3039    3.7494    0.0000 C   0  0
   -1.4470    5.2297    0.0000 C   0  0
   -2.9153    5.5365    0.0000 N   0  0
   -3.6607    4.2349    0.0000 C   0  0
   -5.1527    4.0728    0.0000 C   0  0
   -6.1233    5.2100    0.0000 C   0  0
   -7.5981    4.9362    0.0000 C   0  0
   -8.0984    3.5221    0.0000 C   0  0
   -9.5732    3.2484    0.0000 Cl  0  0
   -7.1240    2.3818    0.0000 C   0  0
   -5.6491    2.6555    0.0000 C   0  0
   -2.6532    3.1236    0.0000 N   0  0
   -1.2990    0.7500    0.0000 C   0  0
   -1.2990   -0.7500    0.0000 C   0  0
   -2.6003   -1.4978    0.0000 O   0  0
   -3.8983   -0.7459    0.0000 C   0  0
    0.0000   -1.5000    0.0000 C   0  0
    0.0031   -3.0008    0.0000 O   0  0
    1.3032   -3.7490    0.0000 C   0  0
  1  2  1  0
  2  3  1  0
  3  4  2  0
  4  5  1  0
  5  6  1  0
  6  7  2  0
  6  8  1  0
  8  9  2  0
  9 10  1  0
 10 11  1  0
 11 12  1  0
 12 13  2  0
 13 14  1  0
 14 15  2  0
 15 16  1  0
 15 17  1  0
 17 18  2  0
 18 12  1  0
 11 19  2  0
 19  8  1  0
  5 20  2  0
 20 21  1  0
 21 22  1  0
 22 23  1  0
 21 24  2  0
 24  3  1  0
 24 25  1  0
 25 26  1  0
M  END
> <assay_chembl_id>
CHEMBL1272406

> <assay_description>
Cytotoxicity against human PPC1 cells after 48 hrs by sulforhodamine B assay

> <document_journal>
J Med Chem

> <molecule_chembl_id>
CHEMBL1272129

> <standard_value>
26

> <IC50_uM>
0.026

> <Activity>
Yes

> <Canonical_Smiles>
COc1cc(C(=O)c2c[nH]c(-c3ccc(Cl)cc3)n2)cc(OC)c1OC

$$$$

  SciTegic03142313312D

 21 23  0  0  0  0            999 V2000
    3.8976   -0.7553    0.0000 O   0  0
    2.5973   -1.5031    0.0000 C   0  0
    1.2990   -0.7500    0.0000 C   0  0
    1.2990    0.7500    0.0000 C   0  0
    0.0000    1.5000    0.0000 C   0  0
   -1.2990    0.7500    0.0000 C   0  0
   -2.5981    1.5000    0.0000 F   0  0
   -1.2990   -0.7500    0.0000 C   0  0
    0.0000   -1.5000    0.0000 C   0  0
    2.5951   -3.0039    0.0000 C   0  0
    3.8056   -3.8679    0.0000 C   0  0
    3.3372   -5.2929    0.0000 N   0  0
    1.8372   -5.2877    0.0000 C   0  0
    0.9508   -6.4988    0.0000 C   0  0
    1.4504   -7.9079    0.0000 C   0  0
    0.4759   -9.0482    0.0000 C   0  0
   -0.9989   -8.7745    0.0000 C   0  0
   -1.9734   -9.9149    0.0000 Cl  0  0
   -1.4993   -7.3604    0.0000 C   0  0
   -0.5248   -6.2201    0.0000 C   0  0
    1.3786   -3.8595    0.0000 N   0  0
  1  2  2  0
  2  3  1  0
  3  4  2  0
  4  5  1  0
  5  6  2  0
  6  7  1  0
  6  8  1  0
  8  9  2  0
  9  3  1  0
  2 10  1  0
 10 11  2  0
 11 12  1  0
 12 13  1  0
 13 14  1  0
 14 15  2  0
 15 16  1  0
 16 17  2  0
 17 18  1  0
 17 19  1  0
 19 20  2  0
 20 14  1  0
 13 21  2  0
 21 10  1  0
M  END
> <assay_chembl_id>
CHEMBL1272406

> <assay_description>
Cytotoxicity against human PPC1 cells after 48 hrs by sulforhodamine B assay

> <document_journal>
J Med Chem

> <molecule_chembl_id>
CHEMBL1272130

> <standard_value>
52

> <IC50_uM>
0.052

> <Activity>
Yes

> <Canonical_Smiles>
O=C(c1ccc(F)cc1)c1c[nH]c(-c2ccc(Cl)cc2)n1

$$$$

  SciTegic03142313312D

 28 30  0  0  0  0            999 V2000
    3.8983   -0.7459    0.0000 C   0  0
    2.6003   -1.4977    0.0000 O   0  0
    1.2990   -0.7500    0.0000 C   0  0
    1.2990    0.7500    0.0000 C   0  0
    0.0000    1.5000    0.0000 C   0  0
   -0.0031    3.0008    0.0000 C   0  0
    1.2946    3.7531    0.0000 O   0  0
   -1.3039    3.7494    0.0000 C   0  0
   -1.4470    5.2297    0.0000 C   0  0
   -2.9153    5.5365    0.0000 N   0  0
   -3.6607    4.2349    0.0000 C   0  0
   -5.1527    4.0728    0.0000 C   0  0
   -6.1233    5.2100    0.0000 C   0  0
   -7.5981    4.9362    0.0000 C   0  0
   -8.0984    3.5221    0.0000 C   0  0
   -9.5735    3.2452    0.0000 N   0  0
  -10.0718    1.8304    0.0000 C   0  0
  -10.5499    4.3839    0.0000 C   0  0
   -7.1240    2.3818    0.0000 C   0  0
   -5.6491    2.6555    0.0000 C   0  0
   -2.6532    3.1236    0.0000 N   0  0
   -1.2990    0.7500    0.0000 C   0  0
   -1.2990   -0.7500    0.0000 C   0  0
   -2.6003   -1.4978    0.0000 O   0  0
   -3.8983   -0.7459    0.0000 C   0  0
    0.0000   -1.5000    0.0000 C   0  0
    0.0031   -3.0008    0.0000 O   0  0
    1.3032   -3.7490    0.0000 C   0  0
  1  2  1  0
  2  3  1  0
  3  4  2  0
  4  5  1  0
  5  6  1  0
  6  7  2  0
  6  8  1  0
  8  9  2  0
  9 10  1  0
 10 11  1  0
 11 12  1  0
 12 13  2  0
 13 14  1  0
 14 15  2  0
 15 16  1  0
 16 17  1  0
 16 18  1  0
 15 19  1  0
 19 20  2  0
 20 12  1  0
 11 21  2  0
 21  8  1  0
  5 22  2  0
 22 23  1  0
 23 24  1  0
 24 25  1  0
 23 26  2  0
 26  3  1  0
 26 27  1  0
 27 28  1  0
M  END
> <assay_chembl_id>
CHEMBL1272406

> <assay_description>
Cytotoxicity against human PPC1 cells after 48 hrs by sulforhodamine B assay

> <document_journal>
J Med Chem

> <molecule_chembl_id>
CHEMBL1272183

> <standard_value>
67

> <IC50_uM>
0.067

> <Activity>
Yes

> <Canonical_Smiles>
COc1cc(C(=O)c2c[nH]c(-c3ccc(N(C)C)cc3)n2)cc(OC)c1OC

$$$$

  SciTegic03142313312D

 23 25  0  0  0  0            999 V2000
    2.5951   -3.0031    0.0000 C   0  0
    2.5973   -1.5031    0.0000 N   0  0
    3.8976   -0.7553    0.0000 C   0  0
    1.2990   -0.7500    0.0000 C   0  0
    1.2990    0.7500    0.0000 C   0  0
    0.0000    1.5000    0.0000 C   0  0
   -1.2990    0.7500    0.0000 C   0  0
   -2.5987    1.5004    0.0000 C   0  0
   -2.7390    2.9810    0.0000 N   0  0
   -4.2067    3.2905    0.0000 C   0  0
   -4.8211    4.6570    0.0000 C   0  0
   -3.9435    5.8735    0.0000 O   0  0
   -6.3142    4.8094    0.0000 C   0  0
   -6.9313    6.1766    0.0000 C   0  0
   -8.4239    6.3258    0.0000 C   0  0
   -9.2994    5.1078    0.0000 C   0  0
  -10.7919    5.2570    0.0000 F   0  0
   -8.6823    3.7406    0.0000 C   0  0
   -7.1898    3.5914    0.0000 C   0  0
   -4.9546    1.9903    0.0000 C   0  0
   -3.9492    0.8772    0.0000 N   0  0
   -1.2990   -0.7500    0.0000 C   0  0
    0.0000   -1.5000    0.0000 C   0  0
  1  2  1  0
  2  3  1  0
  2  4  1  0
  4  5  2  0
  5  6  1  0
  6  7  2  0
  7  8  1  0
  8  9  2  0
  9 10  1  0
 10 11  1  0
 11 12  2  0
 11 13  1  0
 13 14  2  0
 14 15  1  0
 15 16  2  0
 16 17  1  0
 16 18  1  0
 18 19  2  0
 19 13  1  0
 10 20  2  0
 20 21  1  0
 21  8  1  0
  7 22  1  0
 22 23  2  0
 23  4  1  0
M  END
> <assay_chembl_id>
CHEMBL1272406

> <assay_description>
Cytotoxicity against human PPC1 cells after 48 hrs by sulforhodamine B assay

> <document_journal>
J Med Chem

> <molecule_chembl_id>
CHEMBL1272184

> <standard_value>
45

> <IC50_uM>
0.045

> <Activity>
Yes

> <Canonical_Smiles>
CN(C)c1ccc(-c2nc(C(=O)c3ccc(F)cc3)c[nH]2)cc1

$$$$

  SciTegic03142313312D

 29 31  0  0  0  0            999 V2000
    3.8983   -0.7459    0.0000 C   0  0
    2.6003   -1.4977    0.0000 O   0  0
    1.2990   -0.7500    0.0000 C   0  0
    1.2990    0.7500    0.0000 C   0  0
    0.0000    1.5000    0.0000 C   0  0
   -1.2990    0.7500    0.0000 C   0  0
   -2.5987    1.5004    0.0000 C   0  0
   -2.7390    2.9810    0.0000 N   0  0
   -4.2067    3.2905    0.0000 C   0  0
   -4.8211    4.6570    0.0000 C   0  0
   -3.9435    5.8735    0.0000 O   0  0
   -6.3142    4.8094    0.0000 C   0  0
   -6.9313    6.1766    0.0000 C   0  0
   -8.4239    6.3258    0.0000 C   0  0
   -9.0384    7.6950    0.0000 O   0  0
   -8.1612    8.9118    0.0000 C   0  0
   -9.2994    5.1078    0.0000 C   0  0
  -10.7931    5.2541    0.0000 O   0  0
  -11.6669    4.0348    0.0000 C   0  0
   -8.6823    3.7406    0.0000 C   0  0
   -9.5558    2.5202    0.0000 O   0  0
   -8.9369    1.1538    0.0000 C   0  0
   -7.1898    3.5914    0.0000 C   0  0
   -4.9546    1.9903    0.0000 C   0  0
   -3.9492    0.8772    0.0000 N   0  0
   -1.2990   -0.7500    0.0000 C   0  0
    0.0000   -1.5000    0.0000 C   0  0
   -0.0031   -3.0008    0.0000 O   0  0
   -1.3032   -3.7490    0.0000 C   0  0
  1  2  1  0
  2  3  1  0
  3  4  2  0
  4  5  1  0
  5  6  2  0
  6  7  1  0
  7  8  2  0
  8  9  1  0
  9 10  1  0
 10 11  2  0
 10 12  1  0
 12 13  2  0
 13 14  1  0
 14 15  1  0
 15 16  1  0
 14 17  2  0
 17 18  1  0
 18 19  1  0
 17 20  1  0
 20 21  1  0
 21 22  1  0
 20 23  2  0
 23 12  1  0
  9 24  2  0
 24 25  1  0
 25  7  1  0
  6 26  1  0
 26 27  2  0
 27  3  1  0
 27 28  1  0
 28 29  1  0
M  END
> <assay_chembl_id>
CHEMBL1272406

> <assay_description>
Cytotoxicity against human PPC1 cells after 48 hrs by sulforhodamine B assay

> <document_journal>
J Med Chem

> <molecule_chembl_id>
CHEMBL1272239

> <standard_value>
117

> <IC50_uM>
0.117

> <Activity>
Yes

> <Canonical_Smiles>
COc1ccc(-c2nc(C(=O)c3cc(OC)c(OC)c(OC)c3)c[nH]2)cc1OC

$$$$

  SciTegic03142313312D

 28 31  0  0  0  0            999 V2000
    3.8976   -0.7553    0.0000 O   0  0
    2.5973   -1.5031    0.0000 C   0  0
    1.2990   -0.7500    0.0000 C   0  0
    1.2990    0.7500    0.0000 C   0  0
    0.0000    1.5000    0.0000 C   0  0
   -1.2990    0.7500    0.0000 C   0  0
   -2.5981    1.5000    0.0000 F   0  0
   -1.2990   -0.7500    0.0000 C   0  0
    0.0000   -1.5000    0.0000 C   0  0
    2.5951   -3.0039    0.0000 C   0  0
    3.8056   -3.8679    0.0000 C   0  0
    3.3372   -5.2929    0.0000 N   0  0
    1.8372   -5.2877    0.0000 C   0  0
    0.9508   -6.4988    0.0000 C   0  0
    1.4504   -7.9079    0.0000 C   0  0
    0.4759   -9.0482    0.0000 C   0  0
   -0.9989   -8.7745    0.0000 C   0  0
   -1.9762   -9.9135    0.0000 O   0  0
   -3.4515   -9.6375    0.0000 C   0  0
   -4.4288  -10.7765    0.0000 C   0  0
   -5.9037  -10.5028    0.0000 C   0  0
   -6.8781  -11.6432    0.0000 C   0  0
   -6.3778  -13.0573    0.0000 C   0  0
   -4.9030  -13.3310    0.0000 C   0  0
   -3.9285  -12.1907    0.0000 C   0  0
   -1.4993   -7.3604    0.0000 C   0  0
   -0.5248   -6.2201    0.0000 C   0  0
    1.3786   -3.8595    0.0000 N   0  0
  1  2  2  0
  2  3  1  0
  3  4  2  0
  4  5  1  0
  5  6  2  0
  6  7  1  0
  6  8  1  0
  8  9  2  0
  9  3  1  0
  2 10  1  0
 10 11  2  0
 11 12  1  0
 12 13  1  0
 13 14  1  0
 14 15  2  0
 15 16  1  0
 16 17  2  0
 17 18  1  0
 18 19  1  0
 19 20  1  0
 20 21  2  0
 21 22  1  0
 22 23  2  0
 23 24  1  0
 24 25  2  0
 25 20  1  0
 17 26  1  0
 26 27  2  0
 27 14  1  0
 13 28  2  0
 28 10  1  0
M  END
> <assay_chembl_id>
CHEMBL1272406

> <assay_description>
Cytotoxicity against human PPC1 cells after 48 hrs by sulforhodamine B assay

> <document_journal>
J Med Chem

> <molecule_chembl_id>
CHEMBL1271525

> <standard_value>
43

> <IC50_uM>
0.043

> <Activity>
Yes

> <Canonical_Smiles>
O=C(c1ccc(F)cc1)c1c[nH]c(-c2ccc(OCc3ccccc3)cc2)n1

$$$$

  SciTegic03142313312D

 29 31  0  0  0  0            999 V2000
    3.8983   -0.7459    0.0000 C   0  0
    2.6003   -1.4977    0.0000 O   0  0
    1.2990   -0.7500    0.0000 C   0  0
    1.2990    0.7500    0.0000 C   0  0
    0.0000    1.5000    0.0000 C   0  0
   -0.0031    3.0008    0.0000 C   0  0
    1.2946    3.7531    0.0000 O   0  0
   -1.3039    3.7494    0.0000 C   0  0
   -1.4470    5.2297    0.0000 C   0  0
   -2.9153    5.5365    0.0000 N   0  0
   -3.6607    4.2349    0.0000 C   0  0
   -5.1527    4.0728    0.0000 C   0  0
   -6.1233    5.2100    0.0000 C   0  0
   -7.5981    4.9362    0.0000 C   0  0
   -8.0984    3.5221    0.0000 C   0  0
   -9.5740    3.2482    0.0000 C   0  0
  -10.5492    4.3880    0.0000 F   0  0
  -10.0739    1.8340    0.0000 F   0  0
  -11.0487    2.9738    0.0000 F   0  0
   -7.1240    2.3818    0.0000 C   0  0
   -5.6491    2.6555    0.0000 C   0  0
   -2.6532    3.1236    0.0000 N   0  0
   -1.2990    0.7500    0.0000 C   0  0
   -1.2990   -0.7500    0.0000 C   0  0
   -2.6003   -1.4978    0.0000 O   0  0
   -3.8983   -0.7459    0.0000 C   0  0
    0.0000   -1.5000    0.0000 C   0  0
    0.0031   -3.0008    0.0000 O   0  0
    1.3032   -3.7490    0.0000 C   0  0
  1  2  1  0
  2  3  1  0
  3  4  2  0
  4  5  1  0
  5  6  1  0
  6  7  2  0
  6  8  1  0
  8  9  2  0
  9 10  1  0
 10 11  1  0
 11 12  1  0
 12 13  2  0
 13 14  1  0
 14 15  2  0
 15 16  1  0
 16 17  1  0
 16 18  1  0
 16 19  1  0
 15 20  1  0
 20 21  2  0
 21 12  1  0
 11 22  2  0
 22  8  1  0
  5 23  2  0
 23 24  1  0
 24 25  1  0
 25 26  1  0
 24 27  2  0
 27  3  1  0
 27 28  1  0
 28 29  1  0
M  END
> <assay_chembl_id>
CHEMBL1272406

> <assay_description>
Cytotoxicity against human PPC1 cells after 48 hrs by sulforhodamine B assay

> <document_journal>
J Med Chem

> <molecule_chembl_id>
CHEMBL1271580

> <standard_value>
110

> <IC50_uM>
0.11

> <Activity>
Yes

> <Canonical_Smiles>
COc1cc(C(=O)c2c[nH]c(-c3ccc(C(F)(F)F)cc3)n2)cc(OC)c1OC

$$$$

  SciTegic03142313312D

 29 32  0  0  0  0            999 V2000
    3.8976   -0.7553    0.0000 O   0  0
    2.5973   -1.5031    0.0000 C   0  0
    1.2990   -0.7500    0.0000 C   0  0
    1.2990    0.7500    0.0000 C   0  0
    0.0000    1.5000    0.0000 C   0  0
   -1.2990    0.7500    0.0000 C   0  0
   -2.5981    1.5000    0.0000 F   0  0
   -1.2990   -0.7500    0.0000 C   0  0
    0.0000   -1.5000    0.0000 C   0  0
    2.5951   -3.0039    0.0000 C   0  0
    1.3786   -3.8595    0.0000 C   0  0
    1.8372   -5.2877    0.0000 N   0  0
    3.3372   -5.2929    0.0000 C   0  0
    4.2151   -6.5101    0.0000 C   0  0
    3.7057   -7.9157    0.0000 C   0  0
    4.6723   -9.0628    0.0000 C   0  0
    6.1489   -8.7993    0.0000 C   0  0
    6.6591   -7.3888    0.0000 C   0  0
    5.6926   -6.2416    0.0000 C   0  0
    3.8056   -3.8679    0.0000 N   0  0
    5.2285   -3.3990    0.0000 S   0  0
    5.5337   -1.9304    0.0000 O   0  0
    4.1094   -2.4002    0.0000 O   0  0
    6.3487   -4.3978    0.0000 C   0  0
    6.0440   -5.8665    0.0000 C   0  0
    7.1636   -6.8648    0.0000 C   0  0
    8.5879   -6.3943    0.0000 C   0  0
    8.8926   -4.9256    0.0000 C   0  0
    7.7731   -3.9273    0.0000 C   0  0
  1  2  2  0
  2  3  1  0
  3  4  2  0
  4  5  1  0
  5  6  2  0
  6  7  1  0
  6  8  1  0
  8  9  2  0
  9  3  1  0
  2 10  1  0
 10 11  2  0
 11 12  1  0
 12 13  2  0
 13 14  1  0
 14 15  2  0
 15 16  1  0
 16 17  2  0
 17 18  1  0
 18 19  2  0
 19 14  1  0
 13 20  1  0
 20 10  1  0
 20 21  1  0
 21 22  2  0
 21 23  2  0
 21 24  1  0
 24 25  2  0
 25 26  1  0
 26 27  2  0
 27 28  1  0
 28 29  2  0
 29 24  1  0
M  END
> <assay_chembl_id>
CHEMBL1272406

> <assay_description>
Cytotoxicity against human PPC1 cells after 48 hrs by sulforhodamine B assay

> <document_journal>
J Med Chem

> <molecule_chembl_id>
CHEMBL1271740

> <standard_value>
575

> <IC50_uM>
0.575

> <Activity>
Yes

> <Canonical_Smiles>
O=C(c1ccc(F)cc1)c1cnc(-c2ccccc2)n1S(=O)(=O)c1ccccc1

$$$$

  SciTegic03142313312D

 31 34  0  0  0  0            999 V2000
    2.5951   -3.0031    0.0000 C   0  0
    2.5973   -1.5031    0.0000 O   0  0
    1.2990   -0.7500    0.0000 C   0  0
    1.2990    0.7500    0.0000 C   0  0
    0.0000    1.5000    0.0000 C   0  0
   -1.2990    0.7500    0.0000 C   0  0
   -2.5987    1.5004    0.0000 C   0  0
   -3.9492    0.8772    0.0000 N   0  0
   -4.9546    1.9903    0.0000 C   0  0
   -4.2067    3.2905    0.0000 C   0  0
   -4.8211    4.6570    0.0000 C   0  0
   -3.9435    5.8735    0.0000 O   0  0
   -6.3142    4.8094    0.0000 C   0  0
   -6.9313    6.1766    0.0000 C   0  0
   -8.4239    6.3258    0.0000 C   0  0
   -9.2994    5.1078    0.0000 C   0  0
  -10.7919    5.2571    0.0000 F   0  0
   -8.6823    3.7406    0.0000 C   0  0
   -7.1898    3.5914    0.0000 C   0  0
   -2.7390    2.9810    0.0000 N   0  0
   -1.6195    3.9767    0.0000 S   0  0
   -0.1960    3.5040    0.0000 O   0  0
   -1.3169    2.5076    0.0000 O   0  0
   -1.9217    5.4468    0.0000 C   0  0
   -3.3451    5.9200    0.0000 C   0  0
   -3.6470    7.3893    0.0000 C   0  0
   -2.5256    8.3854    0.0000 C   0  0
   -1.1021    7.9122    0.0000 C   0  0
   -0.8002    6.4430    0.0000 C   0  0
   -1.2990   -0.7500    0.0000 C   0  0
    0.0000   -1.5000    0.0000 C   0  0
  1  2  1  0
  2  3  1  0
  3  4  2  0
  4  5  1  0
  5  6  2  0
  6  7  1  0
  7  8  2  0
  8  9  1  0
  9 10  2  0
 10 11  1  0
 11 12  2  0
 11 13  1  0
 13 14  2  0
 14 15  1  0
 15 16  2  0
 16 17  1  0
 16 18  1  0
 18 19  2  0
 19 13  1  0
 10 20  1  0
 20  7  1  0
 20 21  1  0
 21 22  2  0
 21 23  2  0
 21 24  1  0
 24 25  2  0
 25 26  1  0
 26 27  2  0
 27 28  1  0
 28 29  2  0
 29 24  1  0
  6 30  1  0
 30 31  2  0
 31  3  1  0
M  END
> <assay_chembl_id>
CHEMBL1272406

> <assay_description>
Cytotoxicity against human PPC1 cells after 48 hrs by sulforhodamine B assay

> <document_journal>
J Med Chem

> <molecule_chembl_id>
CHEMBL1271800

> <standard_value>
32

> <IC50_uM>
0.032

> <Activity>
Yes

> <Canonical_Smiles>
COc1ccc(-c2ncc(C(=O)c3ccc(F)cc3)n2S(=O)(=O)c2ccccc2)cc1

$$$$

  SciTegic03142313312D

 30 33  0  0  0  0            999 V2000
    2.5981   -1.5000    0.0000 C   0  0
    1.2990   -0.7500    0.0000 C   0  0
    1.2990    0.7500    0.0000 C   0  0
    0.0000    1.5000    0.0000 C   0  0
   -1.2990    0.7500    0.0000 C   0  0
   -2.5987    1.5004    0.0000 C   0  0
   -3.9492    0.8772    0.0000 N   0  0
   -4.9546    1.9903    0.0000 C   0  0
   -4.2067    3.2905    0.0000 C   0  0
   -4.8211    4.6570    0.0000 C   0  0
   -3.9435    5.8735    0.0000 O   0  0
   -6.3142    4.8094    0.0000 C   0  0
   -6.9313    6.1766    0.0000 C   0  0
   -8.4239    6.3258    0.0000 C   0  0
   -9.2994    5.1078    0.0000 C   0  0
  -10.7919    5.2571    0.0000 F   0  0
   -8.6823    3.7406    0.0000 C   0  0
   -7.1898    3.5914    0.0000 C   0  0
   -2.7390    2.9810    0.0000 N   0  0
   -1.6195    3.9767    0.0000 S   0  0
   -0.1960    3.5040    0.0000 O   0  0
   -1.3169    2.5076    0.0000 O   0  0
   -1.9217    5.4468    0.0000 C   0  0
   -3.3451    5.9200    0.0000 C   0  0
   -3.6470    7.3893    0.0000 C   0  0
   -2.5256    8.3854    0.0000 C   0  0
   -1.1021    7.9122    0.0000 C   0  0
   -0.8002    6.4430    0.0000 C   0  0
   -1.2990   -0.7500    0.0000 C   0  0
    0.0000   -1.5000    0.0000 C   0  0
  1  2  1  0
  2  3  2  0
  3  4  1  0
  4  5  2  0
  5  6  1  0
  6  7  2  0
  7  8  1  0
  8  9  2  0
  9 10  1  0
 10 11  2  0
 10 12  1  0
 12 13  2  0
 13 14  1  0
 14 15  2  0
 15 16  1  0
 15 17  1  0
 17 18  2  0
 18 12  1  0
  9 19  1  0
 19  6  1  0
 19 20  1  0
 20 21  2  0
 20 22  2  0
 20 23  1  0
 23 24  2  0
 24 25  1  0
 25 26  2  0
 26 27  1  0
 27 28  2  0
 28 23  1  0
  5 29  1  0
 29 30  2  0
 30  2  1  0
M  END
> <assay_chembl_id>
CHEMBL1272406

> <assay_description>
Cytotoxicity against human PPC1 cells after 48 hrs by sulforhodamine B assay

> <document_journal>
J Med Chem

> <molecule_chembl_id>
CHEMBL1271801

> <standard_value>
57

> <IC50_uM>
0.057

> <Activity>
Yes

> <Canonical_Smiles>
Cc1ccc(-c2ncc(C(=O)c3ccc(F)cc3)n2S(=O)(=O)c2ccccc2)cc1

$$$$

  SciTegic03142313312D

 30 33  0  0  0  0            999 V2000
    3.8976   -0.7553    0.0000 O   0  0
    2.5973   -1.5031    0.0000 C   0  0
    1.2990   -0.7500    0.0000 C   0  0
    1.2990    0.7500    0.0000 C   0  0
    0.0000    1.5000    0.0000 C   0  0
   -1.2990    0.7500    0.0000 C   0  0
   -2.5981    1.5000    0.0000 F   0  0
   -1.2990   -0.7500    0.0000 C   0  0
    0.0000   -1.5000    0.0000 C   0  0
    2.5951   -3.0039    0.0000 C   0  0
    1.3786   -3.8595    0.0000 C   0  0
    1.8372   -5.2877    0.0000 N   0  0
    3.3372   -5.2929    0.0000 C   0  0
    4.2151   -6.5101    0.0000 C   0  0
    3.7057   -7.9157    0.0000 C   0  0
    4.6723   -9.0628    0.0000 C   0  0
    6.1489   -8.7993    0.0000 C   0  0
    7.1155   -9.9464    0.0000 Cl  0  0
    6.6591   -7.3888    0.0000 C   0  0
    5.6926   -6.2416    0.0000 C   0  0
    3.8056   -3.8679    0.0000 N   0  0
    5.2285   -3.3990    0.0000 S   0  0
    5.5337   -1.9304    0.0000 O   0  0
    4.1094   -2.4002    0.0000 O   0  0
    6.3487   -4.3978    0.0000 C   0  0
    6.0440   -5.8665    0.0000 C   0  0
    7.1636   -6.8648    0.0000 C   0  0
    8.5879   -6.3943    0.0000 C   0  0
    8.8926   -4.9256    0.0000 C   0  0
    7.7731   -3.9273    0.0000 C   0  0
  1  2  2  0
  2  3  1  0
  3  4  2  0
  4  5  1  0
  5  6  2  0
  6  7  1  0
  6  8  1  0
  8  9  2  0
  9  3  1  0
  2 10  1  0
 10 11  2  0
 11 12  1  0
 12 13  2  0
 13 14  1  0
 14 15  2  0
 15 16  1  0
 16 17  2  0
 17 18  1  0
 17 19  1  0
 19 20  2  0
 20 14  1  0
 13 21  1  0
 21 10  1  0
 21 22  1  0
 22 23  2  0
 22 24  2  0
 22 25  1  0
 25 26  2  0
 26 27  1  0
 27 28  2  0
 28 29  1  0
 29 30  2  0
 30 25  1  0
M  END
> <assay_chembl_id>
CHEMBL1272406

> <assay_description>
Cytotoxicity against human PPC1 cells after 48 hrs by sulforhodamine B assay

> <document_journal>
J Med Chem

> <molecule_chembl_id>
CHEMBL1271913

> <standard_value>
54

> <IC50_uM>
0.054

> <Activity>
Yes

> <Canonical_Smiles>
O=C(c1ccc(F)cc1)c1cnc(-c2ccc(Cl)cc2)n1S(=O)(=O)c1ccccc1

$$$$

  SciTegic03142313312D

 37 40  0  0  0  0            999 V2000
    3.8983   -0.7459    0.0000 C   0  0
    2.6003   -1.4977    0.0000 O   0  0
    1.2990   -0.7500    0.0000 C   0  0
    1.2990    0.7500    0.0000 C   0  0
    0.0000    1.5000    0.0000 C   0  0
   -0.0031    3.0008    0.0000 C   0  0
    1.2946    3.7531    0.0000 O   0  0
   -1.3039    3.7494    0.0000 C   0  0
   -2.6532    3.1236    0.0000 C   0  0
   -3.6607    4.2349    0.0000 N   0  0
   -2.9153    5.5365    0.0000 C   0  0
   -3.5304    6.9054    0.0000 C   0  0
   -5.0024    7.1671    0.0000 C   0  0
   -5.5125    8.5777    0.0000 C   0  0
   -4.5460    9.7248    0.0000 C   0  0
   -5.0536   11.1372    0.0000 N   0  0
   -4.0855   12.2829    0.0000 C   0  0
   -6.5298   11.4032    0.0000 C   0  0
   -3.0694    9.4613    0.0000 C   0  0
   -2.5592    8.0507    0.0000 C   0  0
   -1.4470    5.2297    0.0000 N   0  0
   -0.3294    6.2275    0.0000 S   0  0
    1.0951    5.7575    0.0000 O   0  0
   -0.0240    4.7590    0.0000 O   0  0
   -0.6343    7.6971    0.0000 C   0  0
   -2.0586    8.1675    0.0000 C   0  0
   -2.3633    9.6363    0.0000 C   0  0
   -1.2437   10.6345    0.0000 C   0  0
    0.1806   10.1640    0.0000 C   0  0
    0.4853    8.6953    0.0000 C   0  0
   -1.2990    0.7500    0.0000 C   0  0
   -1.2990   -0.7500    0.0000 C   0  0
   -2.6003   -1.4978    0.0000 O   0  0
   -3.8983   -0.7459    0.0000 C   0  0
    0.0000   -1.5000    0.0000 C   0  0
    0.0031   -3.0008    0.0000 O   0  0
    1.3032   -3.7490    0.0000 C   0  0
  1  2  1  0
  2  3  1  0
  3  4  2  0
  4  5  1  0
  5  6  1  0
  6  7  2  0
  6  8  1  0
  8  9  2  0
  9 10  1  0
 10 11  2  0
 11 12  1  0
 12 13  2  0
 13 14  1  0
 14 15  2  0
 15 16  1  0
 16 17  1  0
 16 18  1  0
 15 19  1  0
 19 20  2  0
 20 12  1  0
 11 21  1  0
 21  8  1  0
 21 22  1  0
 22 23  2  0
 22 24  2  0
 22 25  1  0
 25 26  2  0
 26 27  1  0
 27 28  2  0
 28 29  1  0
 29 30  2  0
 30 25  1  0
  5 31  2  0
 31 32  1  0
 32 33  1  0
 33 34  1  0
 32 35  2  0
 35  3  1  0
 35 36  1  0
 36 37  1  0
M  END
> <assay_chembl_id>
CHEMBL1272406

> <assay_description>
Cytotoxicity against human PPC1 cells after 48 hrs by sulforhodamine B assay

> <document_journal>
J Med Chem

> <molecule_chembl_id>
CHEMBL1271914

> <standard_value>
72

> <IC50_uM>
0.072

> <Activity>
Yes

> <Canonical_Smiles>
COc1cc(C(=O)c2cnc(-c3ccc(N(C)C)cc3)n2S(=O)(=O)c2ccccc2)cc(OC)c1OC

$$$$

  SciTegic03142313312D

 32 35  0  0  0  0            999 V2000
    2.5951   -3.0031    0.0000 C   0  0
    2.5973   -1.5031    0.0000 N   0  0
    3.8976   -0.7553    0.0000 C   0  0
    1.2990   -0.7500    0.0000 C   0  0
    1.2990    0.7500    0.0000 C   0  0
    0.0000    1.5000    0.0000 C   0  0
   -1.2990    0.7500    0.0000 C   0  0
   -2.5987    1.5004    0.0000 C   0  0
   -3.9492    0.8772    0.0000 N   0  0
   -4.9546    1.9903    0.0000 C   0  0
   -4.2067    3.2905    0.0000 C   0  0
   -4.8211    4.6570    0.0000 C   0  0
   -3.9435    5.8735    0.0000 O   0  0
   -6.3142    4.8094    0.0000 C   0  0
   -6.9313    6.1766    0.0000 C   0  0
   -8.4239    6.3258    0.0000 C   0  0
   -9.2994    5.1078    0.0000 C   0  0
  -10.7919    5.2571    0.0000 F   0  0
   -8.6823    3.7406    0.0000 C   0  0
   -7.1898    3.5914    0.0000 C   0  0
   -2.7390    2.9810    0.0000 N   0  0
   -1.6195    3.9767    0.0000 S   0  0
   -0.1960    3.5040    0.0000 O   0  0
   -1.3169    2.5076    0.0000 O   0  0
   -1.9217    5.4468    0.0000 C   0  0
   -3.3451    5.9200    0.0000 C   0  0
   -3.6470    7.3893    0.0000 C   0  0
   -2.5256    8.3854    0.0000 C   0  0
   -1.1021    7.9122    0.0000 C   0  0
   -0.8002    6.4430    0.0000 C   0  0
   -1.2990   -0.7500    0.0000 C   0  0
    0.0000   -1.5000    0.0000 C   0  0
  1  2  1  0
  2  3  1  0
  2  4  1  0
  4  5  2  0
  5  6  1  0
  6  7  2  0
  7  8  1  0
  8  9  2  0
  9 10  1  0
 10 11  2  0
 11 12  1  0
 12 13  2  0
 12 14  1  0
 14 15  2  0
 15 16  1  0
 16 17  2  0
 17 18  1  0
 17 19  1  0
 19 20  2  0
 20 14  1  0
 11 21  1  0
 21  8  1  0
 21 22  1  0
 22 23  2  0
 22 24  2  0
 22 25  1  0
 25 26  2  0
 26 27  1  0
 27 28  2  0
 28 29  1  0
 29 30  2  0
 30 25  1  0
  7 31  1  0
 31 32  2  0
 32  4  1  0
M  END
> <assay_chembl_id>
CHEMBL1272406

> <assay_description>
Cytotoxicity against human PPC1 cells after 48 hrs by sulforhodamine B assay

> <document_journal>
J Med Chem

> <molecule_chembl_id>
CHEMBL1271969

> <standard_value>
48

> <IC50_uM>
0.048

> <Activity>
Yes

> <Canonical_Smiles>
CN(C)c1ccc(-c2ncc(C(=O)c3ccc(F)cc3)n2S(=O)(=O)c2ccccc2)cc1

$$$$

  SciTegic03142313312D

 38 41  0  0  0  0            999 V2000
    3.8983   -0.7459    0.0000 C   0  0
    2.6003   -1.4977    0.0000 O   0  0
    1.2990   -0.7500    0.0000 C   0  0
    1.2990    0.7500    0.0000 C   0  0
    0.0000    1.5000    0.0000 C   0  0
   -1.2990    0.7500    0.0000 C   0  0
   -2.5987    1.5004    0.0000 C   0  0
   -3.9492    0.8772    0.0000 N   0  0
   -4.9546    1.9903    0.0000 C   0  0
   -4.2067    3.2905    0.0000 C   0  0
   -4.8211    4.6570    0.0000 C   0  0
   -3.9435    5.8735    0.0000 O   0  0
   -6.3142    4.8094    0.0000 C   0  0
   -6.9313    6.1766    0.0000 C   0  0
   -8.4239    6.3258    0.0000 C   0  0
   -9.0384    7.6951    0.0000 O   0  0
   -8.1612    8.9118    0.0000 C   0  0
   -9.2994    5.1078    0.0000 C   0  0
  -10.7931    5.2541    0.0000 O   0  0
  -11.6669    4.0349    0.0000 C   0  0
   -8.6823    3.7406    0.0000 C   0  0
   -9.5558    2.5202    0.0000 O   0  0
   -8.9369    1.1538    0.0000 C   0  0
   -7.1898    3.5914    0.0000 C   0  0
   -2.7390    2.9810    0.0000 N   0  0
   -1.6195    3.9767    0.0000 S   0  0
   -0.1960    3.5040    0.0000 O   0  0
   -1.3169    2.5076    0.0000 O   0  0
   -1.9217    5.4468    0.0000 C   0  0
   -3.3451    5.9200    0.0000 C   0  0
   -3.6470    7.3893    0.0000 C   0  0
   -2.5256    8.3854    0.0000 C   0  0
   -1.1021    7.9122    0.0000 C   0  0
   -0.8002    6.4430    0.0000 C   0  0
   -1.2990   -0.7500    0.0000 C   0  0
    0.0000   -1.5000    0.0000 C   0  0
   -0.0031   -3.0008    0.0000 O   0  0
   -1.3032   -3.7490    0.0000 C   0  0
  1  2  1  0
  2  3  1  0
  3  4  2  0
  4  5  1  0
  5  6  2  0
  6  7  1  0
  7  8  2  0
  8  9  1  0
  9 10  2  0
 10 11  1  0
 11 12  2  0
 11 13  1  0
 13 14  2  0
 14 15  1  0
 15 16  1  0
 16 17  1  0
 15 18  2  0
 18 19  1  0
 19 20  1  0
 18 21  1  0
 21 22  1  0
 22 23  1  0
 21 24  2  0
 24 13  1  0
 10 25  1  0
 25  7  1  0
 25 26  1  0
 26 27  2  0
 26 28  2  0
 26 29  1  0
 29 30  2  0
 30 31  1  0
 31 32  2  0
 32 33  1  0
 33 34  2  0
 34 29  1  0
  6 35  1  0
 35 36  2  0
 36  3  1  0
 36 37  1  0
 37 38  1  0
M  END
> <assay_chembl_id>
CHEMBL1272406

> <assay_description>
Cytotoxicity against human PPC1 cells after 48 hrs by sulforhodamine B assay

> <document_journal>
J Med Chem

> <molecule_chembl_id>
CHEMBL1271970

> <standard_value>
117

> <IC50_uM>
0.117

> <Activity>
Yes

> <Canonical_Smiles>
COc1ccc(-c2ncc(C(=O)c3cc(OC)c(OC)c(OC)c3)n2S(=O)(=O)c2ccccc2)cc1OC

$$$$

  SciTegic03142313312D

 37 41  0  0  0  0            999 V2000
    3.8976   -0.7553    0.0000 O   0  0
    2.5973   -1.5031    0.0000 C   0  0
    1.2990   -0.7500    0.0000 C   0  0
    1.2990    0.7500    0.0000 C   0  0
    0.0000    1.5000    0.0000 C   0  0
   -1.2990    0.7500    0.0000 C   0  0
   -2.5981    1.5000    0.0000 F   0  0
   -1.2990   -0.7500    0.0000 C   0  0
    0.0000   -1.5000    0.0000 C   0  0
    2.5951   -3.0039    0.0000 C   0  0
    1.3786   -3.8595    0.0000 C   0  0
    1.8372   -5.2877    0.0000 N   0  0
    3.3372   -5.2929    0.0000 C   0  0
    4.2151   -6.5101    0.0000 C   0  0
    3.7057   -7.9157    0.0000 C   0  0
    4.6723   -9.0628    0.0000 C   0  0
    6.1489   -8.7993    0.0000 C   0  0
    7.1184   -9.9451    0.0000 O   0  0
    8.5955   -9.6794    0.0000 C   0  0
    9.5649  -10.8251    0.0000 C   0  0
   11.0416  -10.5617    0.0000 C   0  0
   12.0081  -11.7088    0.0000 C   0  0
   11.4980  -13.1194    0.0000 C   0  0
   10.0213  -13.3829    0.0000 C   0  0
    9.0548  -12.2358    0.0000 C   0  0
    6.6591   -7.3888    0.0000 C   0  0
    5.6926   -6.2416    0.0000 C   0  0
    3.8056   -3.8679    0.0000 N   0  0
    5.2285   -3.3990    0.0000 S   0  0
    5.5337   -1.9304    0.0000 O   0  0
    4.1094   -2.4002    0.0000 O   0  0
    6.3487   -4.3978    0.0000 C   0  0
    6.0440   -5.8665    0.0000 C   0  0
    7.1636   -6.8648    0.0000 C   0  0
    8.5879   -6.3943    0.0000 C   0  0
    8.8926   -4.9256    0.0000 C   0  0
    7.7731   -3.9273    0.0000 C   0  0
  1  2  2  0
  2  3  1  0
  3  4  2  0
  4  5  1  0
  5  6  2  0
  6  7  1  0
  6  8  1  0
  8  9  2  0
  9  3  1  0
  2 10  1  0
 10 11  2  0
 11 12  1  0
 12 13  2  0
 13 14  1  0
 14 15  2  0
 15 16  1  0
 16 17  2  0
 17 18  1  0
 18 19  1  0
 19 20  1  0
 20 21  2  0
 21 22  1  0
 22 23  2  0
 23 24  1  0
 24 25  2  0
 25 20  1  0
 17 26  1  0
 26 27  2  0
 27 14  1  0
 13 28  1  0
 28 10  1  0
 28 29  1  0
 29 30  2  0
 29 31  2  0
 29 32  1  0
 32 33  2  0
 33 34  1  0
 34 35  2  0
 35 36  1  0
 36 37  2  0
 37 32  1  0
M  END
> <assay_chembl_id>
CHEMBL1272406

> <assay_description>
Cytotoxicity against human PPC1 cells after 48 hrs by sulforhodamine B assay

> <document_journal>
J Med Chem

> <molecule_chembl_id>
CHEMBL1272082

> <standard_value>
38

> <IC50_uM>
0.038

> <Activity>
Yes

> <Canonical_Smiles>
O=C(c1ccc(F)cc1)c1cnc(-c2ccc(OCc3ccccc3)cc2)n1S(=O)(=O)c1ccccc1

$$$$

  SciTegic03142313312D

 25 27  0  0  0  0            999 V2000
    3.8983   -0.7459    0.0000 C   0  0
    2.6003   -1.4977    0.0000 O   0  0
    1.2990   -0.7500    0.0000 C   0  0
    1.2990    0.7500    0.0000 C   0  0
    0.0000    1.5000    0.0000 C   0  0
   -0.0031    3.0008    0.0000 C   0  0
    1.2946    3.7531    0.0000 O   0  0
   -1.3039    3.7494    0.0000 C   0  0
   -1.4470    5.2297    0.0000 C   0  0
   -2.9153    5.5365    0.0000 N   0  0
   -3.6607    4.2349    0.0000 C   0  0
   -5.1527    4.0728    0.0000 C   0  0
   -6.1233    5.2100    0.0000 C   0  0
   -7.5981    4.9362    0.0000 C   0  0
   -8.0984    3.5221    0.0000 C   0  0
   -9.5732    3.2484    0.0000 C   0  0
   -7.1240    2.3818    0.0000 C   0  0
   -5.6491    2.6555    0.0000 C   0  0
   -2.6532    3.1236    0.0000 N   0  0
   -1.2990    0.7500    0.0000 C   0  0
   -1.2990   -0.7500    0.0000 C   0  0
   -2.6003   -1.4978    0.0000 O   0  0
   -3.8983   -0.7459    0.0000 C   0  0
    0.0000   -1.5000    0.0000 C   0  0
    0.0000   -3.0000    0.0000 O   0  0
  1  2  1  0
  2  3  1  0
  3  4  2  0
  4  5  1  0
  5  6  1  0
  6  7  2  0
  6  8  1  0
  8  9  2  0
  9 10  1  0
 10 11  1  0
 11 12  1  0
 12 13  2  0
 13 14  1  0
 14 15  2  0
 15 16  1  0
 15 17  1  0
 17 18  2  0
 18 12  1  0
 11 19  2  0
 19  8  1  0
  5 20  2  0
 20 21  1  0
 21 22  1  0
 22 23  1  0
 21 24  2  0
 24  3  1  0
 24 25  1  0
M  END
> <assay_chembl_id>
CHEMBL1816402

> <assay_description>
Antiproliferative activity against human PPC1 cells after 96 hrs by sulforhodamine B assay

> <document_journal>
Bioorg Med Chem

> <molecule_chembl_id>
CHEMBL1813152

> <standard_value>
110

> <IC50_uM>
0.11

> <Activity>
Yes

> <Canonical_Smiles>
COc1cc(C(=O)c2c[nH]c(-c3ccc(C)cc3)n2)cc(OC)c1O

$$$$

  SciTegic03142313312D

 25 27  0  0  0  0            999 V2000
    3.8983   -0.7459    0.0000 C   0  0
    2.6003   -1.4977    0.0000 O   0  0
    1.2990   -0.7500    0.0000 C   0  0
    1.2990    0.7500    0.0000 C   0  0
    0.0000    1.5000    0.0000 C   0  0
   -0.0031    3.0008    0.0000 C   0  0
    1.2946    3.7531    0.0000 O   0  0
   -1.3039    3.7494    0.0000 C   0  0
   -1.4470    5.2297    0.0000 C   0  0
   -2.9153    5.5365    0.0000 N   0  0
   -3.6607    4.2349    0.0000 C   0  0
   -5.1527    4.0728    0.0000 C   0  0
   -6.1233    5.2100    0.0000 C   0  0
   -7.5981    4.9362    0.0000 C   0  0
   -8.0984    3.5221    0.0000 C   0  0
   -9.5732    3.2484    0.0000 Cl  0  0
   -7.1240    2.3818    0.0000 C   0  0
   -5.6491    2.6555    0.0000 C   0  0
   -2.6532    3.1236    0.0000 N   0  0
   -1.2990    0.7500    0.0000 C   0  0
   -1.2990   -0.7500    0.0000 C   0  0
   -2.6003   -1.4978    0.0000 O   0  0
   -3.8983   -0.7459    0.0000 C   0  0
    0.0000   -1.5000    0.0000 C   0  0
    0.0000   -3.0000    0.0000 O   0  0
  1  2  1  0
  2  3  1  0
  3  4  2  0
  4  5  1  0
  5  6  1  0
  6  7  2  0
  6  8  1  0
  8  9  2  0
  9 10  1  0
 10 11  1  0
 11 12  1  0
 12 13  2  0
 13 14  1  0
 14 15  2  0
 15 16  1  0
 15 17  1  0
 17 18  2  0
 18 12  1  0
 11 19  2  0
 19  8  1  0
  5 20  2  0
 20 21  1  0
 21 22  1  0
 22 23  1  0
 21 24  2  0
 24  3  1  0
 24 25  1  0
M  END
> <assay_chembl_id>
CHEMBL1816402

> <assay_description>
Antiproliferative activity against human PPC1 cells after 96 hrs by sulforhodamine B assay

> <document_journal>
Bioorg Med Chem

> <molecule_chembl_id>
CHEMBL1813153

> <standard_value>
580

> <IC50_uM>
0.58

> <Activity>
Yes

> <Canonical_Smiles>
COc1cc(C(=O)c2c[nH]c(-c3ccc(Cl)cc3)n2)cc(OC)c1O

$$$$

  SciTegic03142313312D

 33 36  0  0  0  0            999 V2000
    3.8983   -0.7459    0.0000 C   0  0
    2.6003   -1.4977    0.0000 O   0  0
    1.2990   -0.7500    0.0000 C   0  0
    1.2990    0.7500    0.0000 C   0  0
    0.0000    1.5000    0.0000 C   0  0
   -0.0031    3.0008    0.0000 C   0  0
    1.2946    3.7531    0.0000 O   0  0
   -1.3039    3.7494    0.0000 C   0  0
   -1.4470    5.2297    0.0000 C   0  0
   -2.9153    5.5365    0.0000 N   0  0
   -3.5266    6.9044    0.0000 C   0  0
   -2.6469    8.1204    0.0000 C   0  0
   -3.2569    9.4907    0.0000 C   0  0
   -2.3753   10.7043    0.0000 C   0  0
   -0.8835   10.5475    0.0000 C   0  0
   -0.2734    9.1772    0.0000 C   0  0
   -1.1550    7.9636    0.0000 C   0  0
   -3.6607    4.2349    0.0000 C   0  0
   -5.1527    4.0728    0.0000 C   0  0
   -6.1233    5.2100    0.0000 C   0  0
   -7.5981    4.9362    0.0000 C   0  0
   -8.0984    3.5221    0.0000 C   0  0
   -9.5732    3.2484    0.0000 C   0  0
   -7.1240    2.3818    0.0000 C   0  0
   -5.6491    2.6555    0.0000 C   0  0
   -2.6532    3.1236    0.0000 N   0  0
   -1.2990    0.7500    0.0000 C   0  0
   -1.2990   -0.7500    0.0000 C   0  0
   -2.6003   -1.4978    0.0000 O   0  0
   -3.8983   -0.7459    0.0000 C   0  0
    0.0000   -1.5000    0.0000 C   0  0
    0.0031   -3.0008    0.0000 O   0  0
    1.3032   -3.7490    0.0000 C   0  0
  1  2  1  0
  2  3  1  0
  3  4  2  0
  4  5  1  0
  5  6  1  0
  6  7  2  0
  6  8  1  0
  8  9  2  0
  9 10  1  0
 10 11  1  0
 11 12  1  0
 12 13  2  0
 13 14  1  0
 14 15  2  0
 15 16  1  0
 16 17  2  0
 17 12  1  0
 10 18  1  0
 18 19  1  0
 19 20  2  0
 20 21  1  0
 21 22  2  0
 22 23  1  0
 22 24  1  0
 24 25  2  0
 25 19  1  0
 18 26  2  0
 26  8  1  0
  5 27  2  0
 27 28  1  0
 28 29  1  0
 29 30  1  0
 28 31  2  0
 31  3  1  0
 31 32  1  0
 32 33  1  0
M  END
> <assay_chembl_id>
CHEMBL1816402

> <assay_description>
Antiproliferative activity against human PPC1 cells after 96 hrs by sulforhodamine B assay

> <document_journal>
Bioorg Med Chem

> <molecule_chembl_id>
CHEMBL1813154

> <standard_value>
780

> <IC50_uM>
0.78

> <Activity>
Yes

> <Canonical_Smiles>
COc1cc(C(=O)c2cn(Cc3ccccc3)c(-c3ccc(C)cc3)n2)cc(OC)c1OC

$$$$

  SciTegic03142313312D

 27 29  0  0  0  0            999 V2000
    3.8983   -0.7459    0.0000 C   0  0
    2.6003   -1.4977    0.0000 O   0  0
    1.2990   -0.7500    0.0000 C   0  0
    1.2990    0.7500    0.0000 C   0  0
    0.0000    1.5000    0.0000 C   0  0
   -0.0031    3.0008    0.0000 C   0  0
    1.2946    3.7531    0.0000 O   0  0
   -1.3039    3.7494    0.0000 C   0  0
   -1.4470    5.2297    0.0000 C   0  0
   -2.9153    5.5365    0.0000 N   0  0
   -3.5301    6.9047    0.0000 C   0  0
   -3.6607    4.2349    0.0000 C   0  0
   -5.1527    4.0728    0.0000 C   0  0
   -6.1233    5.2100    0.0000 C   0  0
   -7.5981    4.9362    0.0000 C   0  0
   -8.0984    3.5221    0.0000 C   0  0
   -9.5732    3.2484    0.0000 C   0  0
   -7.1240    2.3818    0.0000 C   0  0
   -5.6491    2.6555    0.0000 C   0  0
   -2.6532    3.1236    0.0000 N   0  0
   -1.2990    0.7500    0.0000 C   0  0
   -1.2990   -0.7500    0.0000 C   0  0
   -2.6003   -1.4978    0.0000 O   0  0
   -3.8983   -0.7459    0.0000 C   0  0
    0.0000   -1.5000    0.0000 C   0  0
    0.0031   -3.0008    0.0000 O   0  0
    1.3032   -3.7490    0.0000 C   0  0
  1  2  1  0
  2  3  1  0
  3  4  2  0
  4  5  1  0
  5  6  1  0
  6  7  2  0
  6  8  1  0
  8  9  2  0
  9 10  1  0
 10 11  1  0
 10 12  1  0
 12 13  1  0
 13 14  2  0
 14 15  1  0
 15 16  2  0
 16 17  1  0
 16 18  1  0
 18 19  2  0
 19 13  1  0
 12 20  2  0
 20  8  1  0
  5 21  2  0
 21 22  1  0
 22 23  1  0
 23 24  1  0
 22 25  2  0
 25  3  1  0
 25 26  1  0
 26 27  1  0
M  END
> <assay_chembl_id>
CHEMBL1816402

> <assay_description>
Antiproliferative activity against human PPC1 cells after 96 hrs by sulforhodamine B assay

> <document_journal>
Bioorg Med Chem

> <molecule_chembl_id>
CHEMBL1813155

> <standard_value>
30

> <IC50_uM>
0.03

> <Activity>
Yes

> <Canonical_Smiles>
COc1cc(C(=O)c2cn(C)c(-c3ccc(C)cc3)n2)cc(OC)c1OC

$$$$

  SciTegic03142313312D

 34 37  0  0  0  0            999 V2000
    2.5951   -3.0031    0.0000 C   0  0
    2.5973   -1.5031    0.0000 O   0  0
    1.2990   -0.7500    0.0000 C   0  0
    1.2990    0.7500    0.0000 C   0  0
    0.0000    1.5000    0.0000 C   0  0
   -1.2990    0.7500    0.0000 C   0  0
   -2.5988    1.5004    0.0000 S   0  0
   -3.8976    0.7500    0.0000 O   0  0
   -2.5986    0.0004    0.0000 O   0  0
   -2.5998    3.0012    0.0000 N   0  0
   -3.8138    3.8602    0.0000 C   0  0
   -3.3512    5.2871    0.0000 C   0  0
   -4.2301    6.5004    0.0000 C   0  0
   -5.7221    6.3453    0.0000 O   0  0
   -3.6186    7.8710    0.0000 C   0  0
   -4.4967    9.0871    0.0000 C   0  0
   -3.8827   10.4557    0.0000 C   0  0
   -2.3905   10.6083    0.0000 C   0  0
   -1.7765   11.9768    0.0000 F   0  0
   -1.5123    9.3922    0.0000 C   0  0
   -2.1263    8.0237    0.0000 C   0  0
   -1.8512    5.2880    0.0000 N   0  0
   -1.3868    3.8617    0.0000 C   0  0
    0.0380    3.3904    0.0000 C   0  0
    0.4554    1.9551    0.0000 C   0  0
    1.9124    1.5985    0.0000 C   0  0
    2.9497    2.6821    0.0000 C   0  0
    4.4083    2.3284    0.0000 N   0  0
    5.4440    3.4134    0.0000 C   0  0
    4.8305    0.8890    0.0000 C   0  0
    2.5300    4.1222    0.0000 C   0  0
    1.0729    4.4787    0.0000 C   0  0
   -1.2990   -0.7500    0.0000 C   0  0
    0.0000   -1.5000    0.0000 C   0  0
  1  2  1  0
  2  3  1  0
  3  4  2  0
  4  5  1  0
  5  6  2  0
  6  7  1  0
  7  8  2  0
  7  9  2  0
  7 10  1  0
 10 11  1  0
 11 12  2  0
 12 13  1  0
 13 14  2  0
 13 15  1  0
 15 16  2  0
 16 17  1  0
 17 18  2  0
 18 19  1  0
 18 20  1  0
 20 21  2  0
 21 15  1  0
 12 22  1  0
 22 23  2  0
 23 10  1  0
 23 24  1  0
 24 25  2  0
 25 26  1  0
 26 27  2  0
 27 28  1  0
 28 29  1  0
 28 30  1  0
 27 31  1  0
 31 32  2  0
 32 24  1  0
  6 33  1  0
 33 34  2  0
 34  3  1  0
M  END
> <assay_chembl_id>
CHEMBL1816402

> <assay_description>
Antiproliferative activity against human PPC1 cells after 96 hrs by sulforhodamine B assay

> <document_journal>
Bioorg Med Chem

> <molecule_chembl_id>
CHEMBL1813157

> <standard_value>
60

> <IC50_uM>
0.06

> <Activity>
Yes

> <Canonical_Smiles>
COc1ccc(S(=O)(=O)n2cc(C(=O)c3ccc(F)cc3)nc2-c2ccc(N(C)C)cc2)cc1

$$$$

  SciTegic03142313312D

 26 28  0  0  0  0            999 V2000
    3.8983   -0.7459    0.0000 C   0  0
    2.6003   -1.4977    0.0000 O   0  0
    1.2990   -0.7500    0.0000 C   0  0
    1.2990    0.7500    0.0000 C   0  0
    0.0000    1.5000    0.0000 C   0  0
   -0.0031    3.0008    0.0000 C   0  0
    1.2946    3.7531    0.0000 O   0  0
   -1.3039    3.7494    0.0000 C   0  0
   -1.4470    5.2297    0.0000 C   0  0
   -2.9153    5.5365    0.0000 N   0  0
   -3.6607    4.2349    0.0000 C   0  0
   -5.1527    4.0728    0.0000 C   0  0
   -6.1233    5.2100    0.0000 C   0  0
   -7.5981    4.9362    0.0000 C   0  0
   -8.0984    3.5221    0.0000 C   0  0
   -9.5732    3.2484    0.0000 Br  0  0
   -7.1240    2.3818    0.0000 C   0  0
   -5.6491    2.6555    0.0000 C   0  0
   -2.6532    3.1236    0.0000 N   0  0
   -1.2990    0.7500    0.0000 C   0  0
   -1.2990   -0.7500    0.0000 C   0  0
   -2.6003   -1.4978    0.0000 O   0  0
   -3.8983   -0.7459    0.0000 C   0  0
    0.0000   -1.5000    0.0000 C   0  0
    0.0031   -3.0008    0.0000 O   0  0
    1.3032   -3.7490    0.0000 C   0  0
  1  2  1  0
  2  3  1  0
  3  4  2  0
  4  5  1  0
  5  6  1  0
  6  7  2  0
  6  8  1  0
  8  9  2  0
  9 10  1  0
 10 11  1  0
 11 12  1  0
 12 13  2  0
 13 14  1  0
 14 15  2  0
 15 16  1  0
 15 17  1  0
 17 18  2  0
 18 12  1  0
 11 19  2  0
 19  8  1  0
  5 20  2  0
 20 21  1  0
 21 22  1  0
 22 23  1  0
 21 24  2  0
 24  3  1  0
 24 25  1  0
 25 26  1  0
M  END
> <assay_chembl_id>
CHEMBL1816402

> <assay_description>
Antiproliferative activity against human PPC1 cells after 96 hrs by sulforhodamine B assay

> <document_journal>
Bioorg Med Chem

> <molecule_chembl_id>
CHEMBL1813158

> <standard_value>
30

> <IC50_uM>
0.03

> <Activity>
Yes

> <Canonical_Smiles>
COc1cc(C(=O)c2c[nH]c(-c3ccc(Br)cc3)n2)cc(OC)c1OC

$$$$

  SciTegic03142313312D

 25 27  0  0  0  0            999 V2000
    2.5951   -3.0031    0.0000 C   0  0
    2.5973   -1.5031    0.0000 O   0  0
    1.2990   -0.7500    0.0000 C   0  0
    1.2990    0.7500    0.0000 C   0  0
    0.0000    1.5000    0.0000 C   0  0
   -1.2990    0.7500    0.0000 C   0  0
   -2.7248    1.2135    0.0000 N   0  0
   -3.6065    0.0000    0.0000 C   0  0
   -5.1047   -0.0031    0.0000 C   0  0
   -5.8570    1.2946    0.0000 O   0  0
   -5.8532   -1.3040    0.0000 C   0  0
   -7.3533   -1.3093    0.0000 C   0  0
   -8.0987   -2.6109    0.0000 C   0  0
   -9.5996   -2.6131    0.0000 O   0  0
  -10.3522   -1.3156    0.0000 C   0  0
   -7.3442   -3.9074    0.0000 C   0  0
   -8.0874   -5.2113    0.0000 O   0  0
   -7.3310   -6.5066    0.0000 C   0  0
   -5.8442   -3.9021    0.0000 C   0  0
   -5.0866   -5.1977    0.0000 O   0  0
   -3.5866   -5.1904    0.0000 C   0  0
   -5.0987   -2.6005    0.0000 C   0  0
   -2.7248   -1.2135    0.0000 C   0  0
   -1.2990   -0.7500    0.0000 C   0  0
    0.0000   -1.5000    0.0000 C   0  0
  1  2  1  0
  2  3  1  0
  3  4  2  0
  4  5  1  0
  5  6  2  0
  6  7  1  0
  7  8  1  0
  8  9  1  0
  9 10  2  0
  9 11  1  0
 11 12  2  0
 12 13  1  0
 13 14  1  0
 14 15  1  0
 13 16  2  0
 16 17  1  0
 17 18  1  0
 16 19  1  0
 19 20  1  0
 20 21  1  0
 19 22  2  0
 22 11  1  0
  8 23  2  0
 23 24  1  0
 24  6  1  0
 24 25  2  0
 25  3  1  0
M  END
> <assay_chembl_id>
CHEMBL1816402

> <assay_description>
Antiproliferative activity against human PPC1 cells after 96 hrs by sulforhodamine B assay

> <document_journal>
Bioorg Med Chem

> <molecule_chembl_id>
CHEMBL140681

> <standard_value>
50

> <IC50_uM>
0.05

> <Activity>
Yes

> <Canonical_Smiles>
COc1ccc2[nH]c(C(=O)c3cc(OC)c(OC)c(OC)c3)cc2c1

$$$$

  SciTegic03142313312D

 26 28  0  0  0  0            999 V2000
    3.8983   -0.7459    0.0000 C   0  0
    2.6003   -1.4977    0.0000 O   0  0
    1.2990   -0.7500    0.0000 C   0  0
    1.2990    0.7500    0.0000 C   0  0
    0.0000    1.5000    0.0000 C   0  0
   -0.0031    3.0008    0.0000 C   0  0
    1.2938    3.7562    0.0000 N   0  0
    2.5961    3.0120    0.0000 N   0  0
   -1.3039    3.7494    0.0000 C   0  0
   -1.4470    5.2297    0.0000 C   0  0
   -2.9153    5.5365    0.0000 S   0  0
   -3.6607    4.2349    0.0000 C   0  0
   -5.1527    4.0728    0.0000 C   0  0
   -6.1233    5.2100    0.0000 C   0  0
   -7.5981    4.9362    0.0000 C   0  0
   -8.0984    3.5221    0.0000 C   0  0
   -7.1240    2.3818    0.0000 C   0  0
   -5.6491    2.6555    0.0000 C   0  0
   -2.6532    3.1236    0.0000 N   0  0
   -1.2990    0.7500    0.0000 C   0  0
   -1.2990   -0.7500    0.0000 C   0  0
   -2.6003   -1.4978    0.0000 O   0  0
   -3.8983   -0.7459    0.0000 C   0  0
    0.0000   -1.5000    0.0000 C   0  0
    0.0031   -3.0008    0.0000 O   0  0
    1.3032   -3.7490    0.0000 C   0  0
  1  2  1  0
  2  3  1  0
  3  4  2  0
  4  5  1  0
  5  6  1  0
  6  7  2  0
  7  8  1  0
  6  9  1  0
  9 10  2  0
 10 11  1  0
 11 12  1  0
 12 13  1  0
 13 14  2  0
 14 15  1  0
 15 16  2  0
 16 17  1  0
 17 18  2  0
 18 13  1  0
 12 19  2  0
 19  9  1  0
  5 20  2  0
 20 21  1  0
 21 22  1  0
 22 23  1  0
 21 24  2  0
 24  3  1  0
 24 25  1  0
 25 26  1  0
M  END
> <assay_chembl_id>
CHEMBL1832180

> <assay_description>
Anticancer activity against human PPC1 cells after 96 hrs by SRB assay

> <document_journal>
J Med Chem

> <molecule_chembl_id>
CHEMBL1830216

> <standard_value>
966

> <IC50_uM>
0.966

> <Activity>
Yes

> <Canonical_Smiles>
COc1cc(/C(=N\N)c2csc(-c3ccccc3)n2)cc(OC)c1OC

$$$$

  SciTegic03142313312D

 26 28  0  0  0  0            999 V2000
    3.8983   -0.7459    0.0000 C   0  0
    2.6003   -1.4977    0.0000 O   0  0
    1.2990   -0.7500    0.0000 C   0  0
    1.2990    0.7500    0.0000 C   0  0
    0.0000    1.5000    0.0000 C   0  0
   -0.0031    3.0008    0.0000 C   0  0
    1.2938    3.7562    0.0000 N   0  0
    1.2890    5.2562    0.0000 N   0  0
   -1.3039    3.7494    0.0000 C   0  0
   -1.4470    5.2297    0.0000 C   0  0
   -2.9153    5.5365    0.0000 S   0  0
   -3.6607    4.2349    0.0000 C   0  0
   -5.1527    4.0728    0.0000 C   0  0
   -6.1233    5.2100    0.0000 C   0  0
   -7.5981    4.9362    0.0000 C   0  0
   -8.0984    3.5221    0.0000 C   0  0
   -7.1240    2.3818    0.0000 C   0  0
   -5.6491    2.6555    0.0000 C   0  0
   -2.6532    3.1236    0.0000 N   0  0
   -1.2990    0.7500    0.0000 C   0  0
   -1.2990   -0.7500    0.0000 C   0  0
   -2.6003   -1.4978    0.0000 O   0  0
   -3.8983   -0.7459    0.0000 C   0  0
    0.0000   -1.5000    0.0000 C   0  0
    0.0031   -3.0008    0.0000 O   0  0
    1.3032   -3.7490    0.0000 C   0  0
  1  2  1  0
  2  3  1  0
  3  4  2  0
  4  5  1  0
  5  6  1  0
  6  7  2  0
  7  8  1  0
  6  9  1  0
  9 10  2  0
 10 11  1  0
 11 12  1  0
 12 13  1  0
 13 14  2  0
 14 15  1  0
 15 16  2  0
 16 17  1  0
 17 18  2  0
 18 13  1  0
 12 19  2  0
 19  9  1  0
  5 20  2  0
 20 21  1  0
 21 22  1  0
 22 23  1  0
 21 24  2  0
 24  3  1  0
 24 25  1  0
 25 26  1  0
M  END
> <assay_chembl_id>
CHEMBL1832180

> <assay_description>
Anticancer activity against human PPC1 cells after 96 hrs by SRB assay

> <document_journal>
J Med Chem

> <molecule_chembl_id>
CHEMBL1830215

> <standard_value>
872

> <IC50_uM>
0.872

> <Activity>
Yes

> <Canonical_Smiles>
COc1cc(/C(=N/N)c2csc(-c3ccccc3)n2)cc(OC)c1OC

$$$$

  SciTegic03142313312D

 26 28  0  0  0  0            999 V2000
    2.5951   -3.0031    0.0000 C   0  0
    2.5973   -1.5031    0.0000 O   0  0
    1.2990   -0.7500    0.0000 C   0  0
    1.2990    0.7500    0.0000 C   0  0
    0.0000    1.5000    0.0000 C   0  0
   -1.2990    0.7500    0.0000 C   0  0
   -2.5988    1.5004    0.0000 S   0  0
   -3.8976    0.7500    0.0000 O   0  0
   -3.8982    2.2498    0.0000 O   0  0
   -2.5998    3.0012    0.0000 N   0  0
   -3.8995    3.7516    0.0000 C   0  0
   -5.1971    2.9990    0.0000 C   0  0
   -6.4977    3.7464    0.0000 C   0  0
   -6.5007    5.2464    0.0000 C   0  0
   -5.2032    5.9990    0.0000 N   0  0
   -3.9027    5.2517    0.0000 C   0  0
   -2.6060    6.0074    0.0000 N   0  0
   -2.6113    7.5082    0.0000 C   0  0
   -1.3164    8.2655    0.0000 C   0  0
   -1.3247    9.7655    0.0000 C   0  0
   -2.6279   10.5083    0.0000 C   0  0
   -2.6362   12.0083    0.0000 O   0  0
   -3.9227    9.7511    0.0000 C   0  0
   -3.9144    8.2511    0.0000 C   0  0
   -1.2990   -0.7500    0.0000 C   0  0
    0.0000   -1.5000    0.0000 C   0  0
  1  2  1  0
  2  3  1  0
  3  4  2  0
  4  5  1  0
  5  6  2  0
  6  7  1  0
  7  8  2  0
  7  9  2  0
  7 10  1  0
 10 11  1  0
 11 12  2  0
 12 13  1  0
 13 14  2  0
 14 15  1  0
 15 16  2  0
 16 11  1  0
 16 17  1  0
 17 18  1  0
 18 19  2  0
 19 20  1  0
 20 21  2  0
 21 22  1  0
 21 23  1  0
 23 24  2  0
 24 18  1  0
  6 25  1  0
 25 26  2  0
 26  3  1  0
M  END
> <assay_chembl_id>
CHEMBL1832180

> <assay_description>
Anticancer activity against human PPC1 cells after 96 hrs by SRB assay

> <document_journal>
J Med Chem

> <molecule_chembl_id>
CHEMBL1830238

> <standard_value>
701

> <IC50_uM>
0.701

> <Activity>
Yes

> <RemovedSalts>
HCl

> <Canonical_Smiles>
COc1ccc(S(=O)(=O)Nc2cccnc2Nc2ccc(O)cc2)cc1.Cl

$$$$

  SciTegic03142313312D

 27 29  0  0  0  0            999 V2000
    3.8983   -0.7459    0.0000 C   0  0
    2.6003   -1.4977    0.0000 O   0  0
    1.2990   -0.7500    0.0000 C   0  0
    1.2990    0.7500    0.0000 C   0  0
    0.0000    1.5000    0.0000 C   0  0
   -0.0044    3.0009    0.0000 C   0  0
   -1.3050    3.7498    0.0000 C   0  0
   -1.3076    5.2506    0.0000 C   0  0
   -1.3103    6.7506    0.0000 N   0  0
    1.2928    3.7558    0.0000 C   0  0
    2.6464    3.1392    0.0000 C   0  0
    3.6464    4.2573    0.0000 S   0  0
    2.8921    5.5538    0.0000 C   0  0
    3.4979    6.9269    0.0000 C   0  0
    4.9680    7.1986    0.0000 C   0  0
    5.4686    8.6126    0.0000 C   0  0
    4.4943    9.7531    0.0000 C   0  0
    3.0194    9.4796    0.0000 C   0  0
    2.5189    8.0656    0.0000 C   0  0
    1.4259    5.2371    0.0000 N   0  0
   -1.2990    0.7500    0.0000 C   0  0
   -1.2990   -0.7500    0.0000 C   0  0
   -2.6003   -1.4978    0.0000 O   0  0
   -3.8983   -0.7459    0.0000 C   0  0
    0.0000   -1.5000    0.0000 C   0  0
    0.0031   -3.0008    0.0000 O   0  0
    1.3032   -3.7490    0.0000 C   0  0
  1  2  1  0
  2  3  1  0
  3  4  2  0
  4  5  1  0
  5  6  1  0
  6  7  2  0
  7  8  1  0
  8  9  3  0
  6 10  1  0
 10 11  2  0
 11 12  1  0
 12 13  1  0
 13 14  1  0
 14 15  2  0
 15 16  1  0
 16 17  2  0
 17 18  1  0
 18 19  2  0
 19 14  1  0
 13 20  2  0
 20 10  1  0
  5 21  2  0
 21 22  1  0
 22 23  1  0
 23 24  1  0
 22 25  2  0
 25  3  1  0
 25 26  1  0
 26 27  1  0
M  END
> <assay_chembl_id>
CHEMBL1832180

> <assay_description>
Anticancer activity against human PPC1 cells after 96 hrs by SRB assay

> <document_journal>
J Med Chem

> <molecule_chembl_id>
CHEMBL1830217

> <standard_value>
900

> <IC50_uM>
0.9

> <Activity>
Yes

> <Canonical_Smiles>
COc1cc(/C(=C/C#N)c2csc(-c3ccccc3)n2)cc(OC)c1OC

$$$$

  SciTegic03142313312D

 25 27  0  0  0  0            999 V2000
    3.8983   -0.7459    0.0000 C   0  0
    2.6003   -1.4977    0.0000 O   0  0
    1.2990   -0.7500    0.0000 C   0  0
    1.2990    0.7500    0.0000 C   0  0
    0.0000    1.5000    0.0000 C   0  0
   -0.0031    3.0008    0.0000 C   0  0
    1.2946    3.7531    0.0000 O   0  0
   -1.3039    3.7494    0.0000 C   0  0
   -1.4470    5.2297    0.0000 C   0  0
   -2.9153    5.5365    0.0000 O   0  0
   -3.6607    4.2349    0.0000 C   0  0
   -5.1527    4.0728    0.0000 C   0  0
   -6.1233    5.2100    0.0000 C   0  0
   -7.5981    4.9362    0.0000 C   0  0
   -8.0984    3.5221    0.0000 C   0  0
   -7.1240    2.3818    0.0000 C   0  0
   -5.6491    2.6555    0.0000 C   0  0
   -2.6532    3.1236    0.0000 N   0  0
   -1.2990    0.7500    0.0000 C   0  0
   -1.2990   -0.7500    0.0000 C   0  0
   -2.6003   -1.4978    0.0000 O   0  0
   -3.8983   -0.7459    0.0000 C   0  0
    0.0000   -1.5000    0.0000 C   0  0
    0.0031   -3.0008    0.0000 O   0  0
    1.3032   -3.7490    0.0000 C   0  0
  1  2  1  0
  2  3  1  0
  3  4  2  0
  4  5  1  0
  5  6  1  0
  6  7  2  0
  6  8  1  0
  8  9  2  0
  9 10  1  0
 10 11  1  0
 11 12  1  0
 12 13  2  0
 13 14  1  0
 14 15  2  0
 15 16  1  0
 16 17  2  0
 17 12  1  0
 11 18  2  0
 18  8  1  0
  5 19  2  0
 19 20  1  0
 20 21  1  0
 21 22  1  0
 20 23  2  0
 23  3  1  0
 23 24  1  0
 24 25  1  0
M  END
> <assay_chembl_id>
CHEMBL1832180

> <assay_description>
Anticancer activity against human PPC1 cells after 96 hrs by SRB assay

> <document_journal>
J Med Chem

> <molecule_chembl_id>
CHEMBL1830200

> <standard_value>
343

> <IC50_uM>
0.343

> <Activity>
Yes

> <Canonical_Smiles>
COc1cc(C(=O)c2coc(-c3ccccc3)n2)cc(OC)c1OC

$$$$

  SciTegic03142313312D

 25 27  0  0  0  0            999 V2000
    3.8983   -0.7459    0.0000 C   0  0
    2.6003   -1.4977    0.0000 O   0  0
    1.2990   -0.7500    0.0000 C   0  0
    1.2990    0.7500    0.0000 C   0  0
    0.0000    1.5000    0.0000 C   0  0
   -0.0031    3.0008    0.0000 C   0  0
    1.2946    3.7531    0.0000 O   0  0
   -1.3039    3.7494    0.0000 C   0  0
   -1.4470    5.2297    0.0000 C   0  0
   -2.9153    5.5365    0.0000 C   0  0
   -3.5304    6.9054    0.0000 C   0  0
   -2.7488    8.1798    0.0000 C   0  0
   -3.4649    9.4979    0.0000 C   0  0
   -4.9644    9.5368    0.0000 C   0  0
   -5.7478    8.2576    0.0000 C   0  0
   -5.0318    6.9395    0.0000 C   0  0
   -3.6607    4.2349    0.0000 N   0  0
   -2.6532    3.1236    0.0000 N   0  0
   -1.2990    0.7500    0.0000 C   0  0
   -1.2990   -0.7500    0.0000 C   0  0
   -2.6003   -1.4978    0.0000 O   0  0
   -3.8983   -0.7459    0.0000 C   0  0
    0.0000   -1.5000    0.0000 C   0  0
    0.0031   -3.0008    0.0000 O   0  0
    1.3032   -3.7490    0.0000 C   0  0
  1  2  1  0
  2  3  1  0
  3  4  2  0
  4  5  1  0
  5  6  1  0
  6  7  2  0
  6  8  1  0
  8  9  2  0
  9 10  1  0
 10 11  1  0
 11 12  2  0
 12 13  1  0
 13 14  2  0
 14 15  1  0
 15 16  2  0
 16 11  1  0
 10 17  2  0
 17 18  1  0
 18  8  1  0
  5 19  2  0
 19 20  1  0
 20 21  1  0
 21 22  1  0
 20 23  2  0
 23  3  1  0
 23 24  1  0
 24 25  1  0
M  END
> <assay_chembl_id>
CHEMBL1832180

> <assay_description>
Anticancer activity against human PPC1 cells after 96 hrs by SRB assay

> <document_journal>
J Med Chem

> <molecule_chembl_id>
CHEMBL1830206

> <standard_value>
84

> <IC50_uM>
0.084

> <Activity>
Yes

> <Canonical_Smiles>
COc1cc(C(=O)c2cc(-c3ccccc3)n[nH]2)cc(OC)c1OC

$$$$

  SciTegic03142313312D

 26 28  0  0  0  0            999 V2000
    3.8983   -0.7459    0.0000 C   0  0
    2.6003   -1.4977    0.0000 O   0  0
    1.2990   -0.7500    0.0000 C   0  0
    1.2990    0.7500    0.0000 C   0  0
    0.0000    1.5000    0.0000 C   0  0
   -0.0031    3.0008    0.0000 C   0  0
    1.2946    3.7531    0.0000 O   0  0
   -1.3039    3.7494    0.0000 C   0  0
   -1.3092    5.2494    0.0000 C   0  0
   -2.6108    5.9949    0.0000 C   0  0
   -3.9073    5.2404    0.0000 C   0  0
   -3.9021    3.7404    0.0000 C   0  0
   -5.1992    2.9855    0.0000 C   0  0
   -6.5021    3.7289    0.0000 C   0  0
   -7.7973    2.9724    0.0000 C   0  0
   -7.7897    1.4724    0.0000 C   0  0
   -6.4869    0.7290    0.0000 C   0  0
   -5.1917    1.4855    0.0000 C   0  0
   -2.6005    2.9949    0.0000 C   0  0
   -1.2990    0.7500    0.0000 C   0  0
   -1.2990   -0.7500    0.0000 C   0  0
   -2.6003   -1.4978    0.0000 O   0  0
   -3.8983   -0.7459    0.0000 C   0  0
    0.0000   -1.5000    0.0000 C   0  0
    0.0031   -3.0008    0.0000 O   0  0
    1.3032   -3.7490    0.0000 C   0  0
  1  2  1  0
  2  3  1  0
  3  4  2  0
  4  5  1  0
  5  6  1  0
  6  7  2  0
  6  8  1  0
  8  9  2  0
  9 10  1  0
 10 11  2  0
 11 12  1  0
 12 13  1  0
 13 14  2  0
 14 15  1  0
 15 16  2  0
 16 17  1  0
 17 18  2  0
 18 13  1  0
 12 19  2  0
 19  8  1  0
  5 20  2  0
 20 21  1  0
 21 22  1  0
 22 23  1  0
 21 24  2  0
 24  3  1  0
 24 25  1  0
 25 26  1  0
M  END
> <assay_chembl_id>
CHEMBL1832180

> <assay_description>
Anticancer activity against human PPC1 cells after 96 hrs by SRB assay

> <document_journal>
J Med Chem

> <molecule_chembl_id>
CHEMBL1830201

> <standard_value>
80

> <IC50_uM>
0.08

> <Activity>
Yes

> <Canonical_Smiles>
COc1cc(C(=O)c2cccc(-c3ccccc3)c2)cc(OC)c1OC

$$$$

  SciTegic03142313312D

 26 28  0  0  0  0            999 V2000
    3.8983   -0.7459    0.0000 C   0  0
    2.6003   -1.4977    0.0000 O   0  0
    1.2990   -0.7500    0.0000 C   0  0
    1.2990    0.7500    0.0000 C   0  0
    0.0000    1.5000    0.0000 C   0  0
   -0.0031    3.0008    0.0000 C   0  0
    1.2938    3.7562    0.0000 N   0  0
    1.2890    5.2562    0.0000 O   0  0
   -1.3039    3.7494    0.0000 C   0  0
   -1.4470    5.2297    0.0000 C   0  0
   -2.9153    5.5365    0.0000 S   0  0
   -3.6607    4.2349    0.0000 C   0  0
   -5.1527    4.0728    0.0000 C   0  0
   -6.1233    5.2100    0.0000 C   0  0
   -7.5981    4.9362    0.0000 C   0  0
   -8.0984    3.5221    0.0000 C   0  0
   -7.1240    2.3818    0.0000 C   0  0
   -5.6491    2.6555    0.0000 C   0  0
   -2.6532    3.1236    0.0000 N   0  0
   -1.2990    0.7500    0.0000 C   0  0
   -1.2990   -0.7500    0.0000 C   0  0
   -2.6003   -1.4978    0.0000 O   0  0
   -3.8983   -0.7459    0.0000 C   0  0
    0.0000   -1.5000    0.0000 C   0  0
    0.0031   -3.0008    0.0000 O   0  0
    1.3032   -3.7490    0.0000 C   0  0
  1  2  1  0
  2  3  1  0
  3  4  2  0
  4  5  1  0
  5  6  1  0
  6  7  2  0
  7  8  1  0
  6  9  1  0
  9 10  2  0
 10 11  1  0
 11 12  1  0
 12 13  1  0
 13 14  2  0
 14 15  1  0
 15 16  2  0
 16 17  1  0
 17 18  2  0
 18 13  1  0
 12 19  2  0
 19  9  1  0
  5 20  2  0
 20 21  1  0
 21 22  1  0
 22 23  1  0
 21 24  2  0
 24  3  1  0
 24 25  1  0
 25 26  1  0
M  END
> <assay_chembl_id>
CHEMBL1832180

> <assay_description>
Anticancer activity against human PPC1 cells after 96 hrs by SRB assay

> <document_journal>
J Med Chem

> <molecule_chembl_id>
CHEMBL1830210

> <standard_value>
144

> <IC50_uM>
0.144

> <Activity>
Yes

> <Canonical_Smiles>
COc1cc(/C(=N/O)c2csc(-c3ccccc3)n2)cc(OC)c1OC

$$$$

  SciTegic03142313312D

 33 35  0  0  1  0            999 V2000
    3.8983   -0.7459    0.0000 C   0  0
    2.6003   -1.4977    0.0000 O   0  0
    1.2990   -0.7500    0.0000 C   0  0
    1.2990    0.7500    0.0000 C   0  0
    0.0000    1.5000    0.0000 C   0  0
   -0.0031    3.0008    0.0000 C   0  0
    1.2946    3.7531    0.0000 O   0  0
   -1.3039    3.7494    0.0000 C   0  0  2  0  0  0
   -1.4470    5.2297    0.0000 C   0  0
   -2.9153    5.5365    0.0000 S   0  0
   -3.6607    4.2349    0.0000 C   0  0
   -5.1527    4.0728    0.0000 C   0  0
   -6.1233    5.2100    0.0000 C   0  0
   -7.5981    4.9362    0.0000 C   0  0
   -8.0984    3.5221    0.0000 C   0  0
   -9.5735    3.2452    0.0000 O   0  0
  -10.0721    1.8296    0.0000 Si  0  0
   -9.0956    0.6910    0.0000 C   0  0
   -8.5977    2.1057    0.0000 C   0  0
  -11.5472    1.5527    0.0000 C   0  0
  -12.0455    0.1379    0.0000 C   0  0
  -12.5236    2.6914    0.0000 C   0  0
  -13.0215    1.2766    0.0000 C   0  0
   -7.1240    2.3818    0.0000 C   0  0
   -5.6491    2.6555    0.0000 C   0  0
   -2.6532    3.1236    0.0000 N   0  0
   -1.2990    0.7500    0.0000 C   0  0
   -1.2990   -0.7500    0.0000 C   0  0
   -2.6003   -1.4978    0.0000 O   0  0
   -3.8983   -0.7459    0.0000 C   0  0
    0.0000   -1.5000    0.0000 C   0  0
    0.0031   -3.0008    0.0000 O   0  0
    1.3032   -3.7490    0.0000 C   0  0
  1  2  1  0
  2  3  1  0
  3  4  2  0
  4  5  1  0
  5  6  1  0
  6  7  2  0
  8  6  1  1
  8  9  1  0
  9 10  1  0
 10 11  1  0
 11 12  1  0
 12 13  2  0
 13 14  1  0
 14 15  2  0
 15 16  1  0
 16 17  1  0
 17 18  1  0
 17 19  1  0
 17 20  1  0
 20 21  1  0
 20 22  1  0
 20 23  1  0
 15 24  1  0
 24 25  2  0
 25 12  1  0
 11 26  2  0
 26  8  1  0
  5 27  2  0
 27 28  1  0
 28 29  1  0
 29 30  1  0
 28 31  2  0
 31  3  1  0
 31 32  1  0
 32 33  1  0
M  END
> <assay_chembl_id>
CHEMBL1832180

> <assay_description>
Anticancer activity against human PPC1 cells after 96 hrs by SRB assay

> <document_journal>
J Med Chem

> <molecule_chembl_id>
CHEMBL1830229

> <standard_value>
246

> <IC50_uM>
0.246

> <Activity>
Yes

> <Canonical_Smiles>
COc1cc(C(=O)[C@@H]2CSC(c3ccc(O[Si](C)(C)C(C)(C)C)cc3)=N2)cc(OC)c1OC

$$$$

  SciTegic03142313312D

 28 31  0  0  0  0            999 V2000
    0.3357  -13.2016    0.0000 C   0  0
   -0.8032  -12.2254    0.0000 O   0  0
   -0.5279  -10.7500    0.0000 C   0  0
    0.8877  -10.2539    0.0000 C   0  0
    1.1659   -8.7799    0.0000 C   0  0
    2.5812   -8.2806    0.0000 C   0  0
    3.7204   -9.2565    0.0000 O   0  0
    2.8570   -6.8080    0.0000 C   0  0
    4.2107   -6.1619    0.0000 C   0  0
    4.0146   -4.6747    0.0000 S   0  0
    2.5536   -4.4230    0.0000 C   0  0
    1.8032   -3.1233    0.0000 C   0  0
    2.4133   -1.7530    0.0000 C   0  0
    1.2990   -0.7500    0.0000 C   0  0
    1.2990    0.7500    0.0000 C   0  0
    0.0000    1.5000    0.0000 C   0  0
   -1.2990    0.7500    0.0000 C   0  0
   -1.2990   -0.7500    0.0000 C   0  0
    0.0000   -1.5000    0.0000 C   0  0
    0.3114   -2.9665    0.0000 N   0  0
    1.8242   -5.7201    0.0000 N   0  0
    0.0283   -7.8020    0.0000 C   0  0
   -1.3872   -8.2982    0.0000 C   0  0
   -2.5233   -7.3174    0.0000 O   0  0
   -2.2431   -5.8438    0.0000 C   0  0
   -1.6654   -9.7722    0.0000 C   0  0
   -3.0807  -10.2715    0.0000 O   0  0
   -3.3567  -11.7459    0.0000 C   0  0
  1  2  1  0
  2  3  1  0
  3  4  2  0
  4  5  1  0
  5  6  1  0
  6  7  2  0
  6  8  1  0
  8  9  2  0
  9 10  1  0
 10 11  1  0
 11 12  1  0
 12 13  2  0
 13 14  1  0
 14 15  2  0
 15 16  1  0
 16 17  2  0
 17 18  1  0
 18 19  2  0
 19 14  1  0
 19 20  1  0
 20 12  1  0
 11 21  2  0
 21  8  1  0
  5 22  2  0
 22 23  1  0
 23 24  1  0
 24 25  1  0
 23 26  2  0
 26  3  1  0
 26 27  1  0
 27 28  1  0
M  END
> <assay_chembl_id>
CHEMBL1832180

> <assay_description>
Anticancer activity against human PPC1 cells after 96 hrs by SRB assay

> <document_journal>
J Med Chem

> <molecule_chembl_id>
CHEMBL1830230

> <standard_value>
28

> <IC50_uM>
0.028

> <Activity>
Yes

> <Canonical_Smiles>
COc1cc(C(=O)c2csc(-c3cc4ccccc4[nH]3)n2)cc(OC)c1OC

$$$$

  SciTegic03142313312D

 26 28  0  0  0  0            999 V2000
    3.8983   -0.7459    0.0000 C   0  0
    2.6003   -1.4977    0.0000 O   0  0
    1.2990   -0.7500    0.0000 C   0  0
    1.2990    0.7500    0.0000 C   0  0
    0.0000    1.5000    0.0000 C   0  0
   -0.0031    3.0008    0.0000 C   0  0
    1.2946    3.7531    0.0000 O   0  0
   -1.3039    3.7494    0.0000 C   0  0
   -1.4470    5.2297    0.0000 C   0  0
   -2.9153    5.5365    0.0000 S   0  0
   -3.6607    4.2349    0.0000 C   0  0
   -5.1527    4.0728    0.0000 C   0  0
   -6.1233    5.2100    0.0000 C   0  0
   -7.5981    4.9362    0.0000 C   0  0
   -8.0984    3.5221    0.0000 C   0  0
   -9.5732    3.2484    0.0000 O   0  0
   -7.1240    2.3818    0.0000 C   0  0
   -5.6491    2.6555    0.0000 C   0  0
   -2.6532    3.1236    0.0000 N   0  0
   -1.2990    0.7500    0.0000 C   0  0
   -1.2990   -0.7500    0.0000 C   0  0
   -2.6003   -1.4978    0.0000 O   0  0
   -3.8983   -0.7459    0.0000 C   0  0
    0.0000   -1.5000    0.0000 C   0  0
    0.0031   -3.0008    0.0000 O   0  0
    1.3032   -3.7490    0.0000 C   0  0
  1  2  1  0
  2  3  1  0
  3  4  2  0
  4  5  1  0
  5  6  1  0
  6  7  2  0
  6  8  1  0
  8  9  2  0
  9 10  1  0
 10 11  1  0
 11 12  1  0
 12 13  2  0
 13 14  1  0
 14 15  2  0
 15 16  1  0
 15 17  1  0
 17 18  2  0
 18 12  1  0
 11 19  2  0
 19  8  1  0
  5 20  2  0
 20 21  1  0
 21 22  1  0
 22 23  1  0
 21 24  2  0
 24  3  1  0
 24 25  1  0
 25 26  1  0
M  END
> <assay_chembl_id>
CHEMBL1832180

> <assay_description>
Anticancer activity against human PPC1 cells after 96 hrs by SRB assay

> <document_journal>
J Med Chem

> <molecule_chembl_id>
CHEMBL1830197

> <standard_value>
76

> <IC50_uM>
0.076

> <Activity>
Yes

> <Canonical_Smiles>
COc1cc(C(=O)c2csc(-c3ccc(O)cc3)n2)cc(OC)c1OC

$$$$

  SciTegic03142313312D

 25 27  0  0  0  0            999 V2000
    3.8983   -0.7459    0.0000 C   0  0
    2.6003   -1.4977    0.0000 O   0  0
    1.2990   -0.7500    0.0000 C   0  0
    1.2990    0.7500    0.0000 C   0  0
    0.0000    1.5000    0.0000 C   0  0
   -0.0031    3.0008    0.0000 C   0  0
    1.2946    3.7531    0.0000 O   0  0
   -1.3039    3.7494    0.0000 C   0  0
   -1.4470    5.2297    0.0000 C   0  0
   -2.9153    5.5365    0.0000 S   0  0
   -3.6607    4.2349    0.0000 C   0  0
   -5.1527    4.0728    0.0000 C   0  0
   -6.1233    5.2100    0.0000 C   0  0
   -7.5981    4.9362    0.0000 C   0  0
   -8.0984    3.5221    0.0000 C   0  0
   -7.1240    2.3818    0.0000 C   0  0
   -5.6491    2.6555    0.0000 C   0  0
   -2.6532    3.1236    0.0000 C   0  0
   -1.2990    0.7500    0.0000 C   0  0
   -1.2990   -0.7500    0.0000 C   0  0
   -2.6003   -1.4978    0.0000 O   0  0
   -3.8983   -0.7459    0.0000 C   0  0
    0.0000   -1.5000    0.0000 C   0  0
    0.0031   -3.0008    0.0000 O   0  0
    1.3032   -3.7490    0.0000 C   0  0
  1  2  1  0
  2  3  1  0
  3  4  2  0
  4  5  1  0
  5  6  1  0
  6  7  2  0
  6  8  1  0
  8  9  2  0
  9 10  1  0
 10 11  1  0
 11 12  1  0
 12 13  2  0
 13 14  1  0
 14 15  2  0
 15 16  1  0
 16 17  2  0
 17 12  1  0
 11 18  2  0
 18  8  1  0
  5 19  2  0
 19 20  1  0
 20 21  1  0
 21 22  1  0
 20 23  2  0
 23  3  1  0
 23 24  1  0
 24 25  1  0
M  END
> <assay_chembl_id>
CHEMBL1832180

> <assay_description>
Anticancer activity against human PPC1 cells after 96 hrs by SRB assay

> <document_journal>
J Med Chem

> <molecule_chembl_id>
CHEMBL1830205

> <standard_value>
15

> <IC50_uM>
0.015

> <Activity>
Yes

> <Canonical_Smiles>
COc1cc(C(=O)c2csc(-c3ccccc3)c2)cc(OC)c1OC

$$$$

  SciTegic03142313312D

 25 27  0  0  0  0            999 V2000
    3.8983   -0.7459    0.0000 C   0  0
    2.6003   -1.4977    0.0000 O   0  0
    1.2990   -0.7500    0.0000 C   0  0
    1.2990    0.7500    0.0000 C   0  0
    0.0000    1.5000    0.0000 C   0  0
   -0.0031    3.0008    0.0000 C   0  0
    1.2946    3.7531    0.0000 O   0  0
   -1.3039    3.7494    0.0000 C   0  0
   -1.4470    5.2297    0.0000 C   0  0
   -2.9153    5.5365    0.0000 C   0  0
   -3.6607    4.2349    0.0000 C   0  0
   -5.1527    4.0728    0.0000 C   0  0
   -6.1233    5.2100    0.0000 C   0  0
   -7.5981    4.9362    0.0000 C   0  0
   -8.0984    3.5221    0.0000 C   0  0
   -7.1240    2.3818    0.0000 C   0  0
   -5.6491    2.6555    0.0000 C   0  0
   -2.6532    3.1236    0.0000 O   0  0
   -1.2990    0.7500    0.0000 C   0  0
   -1.2990   -0.7500    0.0000 C   0  0
   -2.6003   -1.4978    0.0000 O   0  0
   -3.8983   -0.7459    0.0000 C   0  0
    0.0000   -1.5000    0.0000 C   0  0
    0.0031   -3.0008    0.0000 O   0  0
    1.3032   -3.7490    0.0000 C   0  0
  1  2  1  0
  2  3  1  0
  3  4  2  0
  4  5  1  0
  5  6  1  0
  6  7  2  0
  6  8  1  0
  8  9  2  0
  9 10  1  0
 10 11  2  0
 11 12  1  0
 12 13  2  0
 13 14  1  0
 14 15  2  0
 15 16  1  0
 16 17  2  0
 17 12  1  0
 11 18  1  0
 18  8  1  0
  5 19  2  0
 19 20  1  0
 20 21  1  0
 21 22  1  0
 20 23  2  0
 23  3  1  0
 23 24  1  0
 24 25  1  0
M  END
> <assay_chembl_id>
CHEMBL1832180

> <assay_description>
Anticancer activity against human PPC1 cells after 96 hrs by SRB assay

> <document_journal>
J Med Chem

> <molecule_chembl_id>
CHEMBL1830204

> <standard_value>
20

> <IC50_uM>
0.02

> <Activity>
Yes

> <Canonical_Smiles>
COc1cc(C(=O)c2ccc(-c3ccccc3)o2)cc(OC)c1OC

$$$$

  SciTegic03142313312D

 26 28  0  0  0  0            999 V2000
    3.8983   -0.7459    0.0000 C   0  0
    2.6003   -1.4977    0.0000 O   0  0
    1.2990   -0.7500    0.0000 C   0  0
    1.2990    0.7500    0.0000 C   0  0
    0.0000    1.5000    0.0000 C   0  0
   -0.0031    3.0008    0.0000 C   0  0
    1.2946    3.7531    0.0000 O   0  0
   -1.3039    3.7494    0.0000 C   0  0
   -1.3092    5.2494    0.0000 C   0  0
   -2.6108    5.9949    0.0000 C   0  0
   -3.9073    5.2404    0.0000 C   0  0
   -3.9021    3.7404    0.0000 C   0  0
   -5.1992    2.9855    0.0000 C   0  0
   -6.5021    3.7289    0.0000 C   0  0
   -7.7973    2.9724    0.0000 C   0  0
   -7.7897    1.4724    0.0000 C   0  0
   -6.4869    0.7290    0.0000 C   0  0
   -5.1917    1.4855    0.0000 C   0  0
   -2.6005    2.9949    0.0000 N   0  0
   -1.2990    0.7500    0.0000 C   0  0
   -1.2990   -0.7500    0.0000 C   0  0
   -2.6003   -1.4978    0.0000 O   0  0
   -3.8983   -0.7459    0.0000 C   0  0
    0.0000   -1.5000    0.0000 C   0  0
    0.0031   -3.0008    0.0000 O   0  0
    1.3032   -3.7490    0.0000 C   0  0
  1  2  1  0
  2  3  1  0
  3  4  2  0
  4  5  1  0
  5  6  1  0
  6  7  2  0
  6  8  1  0
  8  9  2  0
  9 10  1  0
 10 11  2  0
 11 12  1  0
 12 13  1  0
 13 14  2  0
 14 15  1  0
 15 16  2  0
 16 17  1  0
 17 18  2  0
 18 13  1  0
 12 19  2  0
 19  8  1  0
  5 20  2  0
 20 21  1  0
 21 22  1  0
 22 23  1  0
 21 24  2  0
 24  3  1  0
 24 25  1  0
 25 26  1  0
M  END
> <assay_chembl_id>
CHEMBL1832180

> <assay_description>
Anticancer activity against human PPC1 cells after 96 hrs by SRB assay

> <document_journal>
J Med Chem

> <molecule_chembl_id>
CHEMBL1830203

> <standard_value>
25

> <IC50_uM>
0.025

> <Activity>
Yes

> <Canonical_Smiles>
COc1cc(C(=O)c2cccc(-c3ccccc3)n2)cc(OC)c1OC

$$$$

  SciTegic03142313312D

 27 29  0  0  0  0            999 V2000
    3.8983   -0.7459    0.0000 C   0  0
    2.6003   -1.4977    0.0000 O   0  0
    1.2990   -0.7500    0.0000 C   0  0
    1.2990    0.7500    0.0000 C   0  0
    0.0000    1.5000    0.0000 C   0  0
   -0.0031    3.0008    0.0000 C   0  0
    1.2946    3.7531    0.0000 O   0  0
   -1.3039    3.7494    0.0000 C   0  0
   -1.4470    5.2297    0.0000 C   0  0
   -2.9153    5.5365    0.0000 S   0  0
   -3.6607    4.2349    0.0000 C   0  0
   -5.1499    4.0700    0.0000 N   0  0
   -5.7536    2.6959    0.0000 C   0  0
   -7.2442    2.5286    0.0000 C   0  0
   -7.8448    1.1541    0.0000 C   0  0
   -6.9547   -0.0532    0.0000 C   0  0
   -7.5553   -1.4278    0.0000 C   0  0
   -5.4640    0.1139    0.0000 C   0  0
   -4.8635    1.4884    0.0000 C   0  0
   -2.6532    3.1236    0.0000 N   0  0
   -1.2990    0.7500    0.0000 C   0  0
   -1.2990   -0.7500    0.0000 C   0  0
   -2.6003   -1.4978    0.0000 O   0  0
   -3.8983   -0.7459    0.0000 C   0  0
    0.0000   -1.5000    0.0000 C   0  0
    0.0031   -3.0008    0.0000 O   0  0
    1.3032   -3.7490    0.0000 C   0  0
  1  2  1  0
  2  3  1  0
  3  4  2  0
  4  5  1  0
  5  6  1  0
  6  7  2  0
  6  8  1  0
  8  9  2  0
  9 10  1  0
 10 11  1  0
 11 12  1  0
 12 13  1  0
 13 14  2  0
 14 15  1  0
 15 16  2  0
 16 17  1  0
 16 18  1  0
 18 19  2  0
 19 13  1  0
 11 20  2  0
 20  8  1  0
  5 21  2  0
 21 22  1  0
 22 23  1  0
 23 24  1  0
 22 25  2  0
 25  3  1  0
 25 26  1  0
 26 27  1  0
M  END
> <assay_chembl_id>
CHEMBL1832180

> <assay_description>
Anticancer activity against human PPC1 cells after 96 hrs by SRB assay

> <document_journal>
J Med Chem

> <molecule_chembl_id>
CHEMBL1830236

> <standard_value>
36

> <IC50_uM>
0.036

> <Activity>
Yes

> <RemovedSalts>
HCl

> <Canonical_Smiles>
COc1cc(C(=O)c2csc(Nc3ccc(C)cc3)n2)cc(OC)c1OC.Cl

$$$$

  SciTegic03142313312D

 27 29  0  0  0  0            999 V2000
    3.8983   -0.7459    0.0000 C   0  0
    2.6003   -1.4977    0.0000 O   0  0
    1.2990   -0.7500    0.0000 C   0  0
    1.2990    0.7500    0.0000 C   0  0
    0.0000    1.5000    0.0000 C   0  0
   -0.0031    3.0008    0.0000 C   0  0
    1.2946    3.7531    0.0000 O   0  0
   -1.3039    3.7494    0.0000 C   0  0
   -1.4470    5.2297    0.0000 C   0  0
   -2.9153    5.5365    0.0000 S   0  0
   -3.6607    4.2349    0.0000 C   0  0
   -5.1499    4.0700    0.0000 N   0  0
   -5.7536    2.6959    0.0000 C   0  0
   -7.2442    2.5286    0.0000 C   0  0
   -7.8448    1.1541    0.0000 C   0  0
   -6.9547   -0.0532    0.0000 C   0  0
   -7.5553   -1.4278    0.0000 F   0  0
   -5.4640    0.1139    0.0000 C   0  0
   -4.8635    1.4884    0.0000 C   0  0
   -2.6532    3.1236    0.0000 N   0  0
   -1.2990    0.7500    0.0000 C   0  0
   -1.2990   -0.7500    0.0000 C   0  0
   -2.6003   -1.4978    0.0000 O   0  0
   -3.8983   -0.7459    0.0000 C   0  0
    0.0000   -1.5000    0.0000 C   0  0
    0.0031   -3.0008    0.0000 O   0  0
    1.3032   -3.7490    0.0000 C   0  0
  1  2  1  0
  2  3  1  0
  3  4  2  0
  4  5  1  0
  5  6  1  0
  6  7  2  0
  6  8  1  0
  8  9  2  0
  9 10  1  0
 10 11  1  0
 11 12  1  0
 12 13  1  0
 13 14  2  0
 14 15  1  0
 15 16  2  0
 16 17  1  0
 16 18  1  0
 18 19  2  0
 19 13  1  0
 11 20  2  0
 20  8  1  0
  5 21  2  0
 21 22  1  0
 22 23  1  0
 23 24  1  0
 22 25  2  0
 25  3  1  0
 25 26  1  0
 26 27  1  0
M  END
> <assay_chembl_id>
CHEMBL1832180

> <assay_description>
Anticancer activity against human PPC1 cells after 96 hrs by SRB assay

> <document_journal>
J Med Chem

> <molecule_chembl_id>
CHEMBL1830237

> <standard_value>
37

> <IC50_uM>
0.037

> <Activity>
Yes

> <Canonical_Smiles>
COc1cc(C(=O)c2csc(Nc3ccc(F)cc3)n2)cc(OC)c1OC

$$$$

  SciTegic03142313312D

 26 28  0  0  0  0            999 V2000
    3.8983   -0.7459    0.0000 C   0  0
    2.6003   -1.4977    0.0000 O   0  0
    1.2990   -0.7500    0.0000 C   0  0
    1.2990    0.7500    0.0000 C   0  0
    0.0000    1.5000    0.0000 C   0  0
   -0.0031    3.0008    0.0000 C   0  0
    1.2946    3.7531    0.0000 O   0  0
   -1.3039    3.7494    0.0000 C   0  0
   -1.4470    5.2297    0.0000 C   0  0
   -2.9153    5.5365    0.0000 S   0  0
   -3.6607    4.2349    0.0000 C   0  0
   -5.1499    4.0700    0.0000 N   0  0
   -5.7536    2.6959    0.0000 C   0  0
   -7.2442    2.5286    0.0000 C   0  0
   -7.8448    1.1541    0.0000 C   0  0
   -6.9547   -0.0532    0.0000 C   0  0
   -5.4640    0.1139    0.0000 C   0  0
   -4.8635    1.4884    0.0000 C   0  0
   -2.6532    3.1236    0.0000 N   0  0
   -1.2990    0.7500    0.0000 C   0  0
   -1.2990   -0.7500    0.0000 C   0  0
   -2.6003   -1.4978    0.0000 O   0  0
   -3.8983   -0.7459    0.0000 C   0  0
    0.0000   -1.5000    0.0000 C   0  0
    0.0031   -3.0008    0.0000 O   0  0
    1.3032   -3.7490    0.0000 C   0  0
  1  2  1  0
  2  3  1  0
  3  4  2  0
  4  5  1  0
  5  6  1  0
  6  7  2  0
  6  8  1  0
  8  9  2  0
  9 10  1  0
 10 11  1  0
 11 12  1  0
 12 13  1  0
 13 14  2  0
 14 15  1  0
 15 16  2  0
 16 17  1  0
 17 18  2  0
 18 13  1  0
 11 19  2  0
 19  8  1  0
  5 20  2  0
 20 21  1  0
 21 22  1  0
 22 23  1  0
 21 24  2  0
 24  3  1  0
 24 25  1  0
 25 26  1  0
M  END
> <assay_chembl_id>
CHEMBL1832180

> <assay_description>
Anticancer activity against human PPC1 cells after 96 hrs by SRB assay

> <document_journal>
J Med Chem

> <molecule_chembl_id>
CHEMBL1830198

> <standard_value>
54

> <IC50_uM>
0.054

> <Activity>
Yes

> <Canonical_Smiles>
COc1cc(C(=O)c2csc(Nc3ccccc3)n2)cc(OC)c1OC

$$$$

  SciTegic03142313312D

 27 29  0  0  0  0            999 V2000
    3.8983   -0.7459    0.0000 C   0  0
    2.6003   -1.4977    0.0000 O   0  0
    1.2990   -0.7500    0.0000 C   0  0
    1.2990    0.7500    0.0000 C   0  0
    0.0000    1.5000    0.0000 C   0  0
   -0.0031    3.0008    0.0000 C   0  0
    1.2946    3.7531    0.0000 O   0  0
   -1.3039    3.7494    0.0000 C   0  0
   -1.4470    5.2297    0.0000 C   0  0
   -2.9153    5.5365    0.0000 S   0  0
   -3.6607    4.2349    0.0000 C   0  0
   -5.1527    4.0728    0.0000 C   0  0
   -6.1233    5.2100    0.0000 C   0  0
   -7.5981    4.9362    0.0000 C   0  0
   -8.0984    3.5221    0.0000 C   0  0
   -9.5735    3.2452    0.0000 C   0  0
  -10.0718    1.8304    0.0000 N   0  0
   -7.1240    2.3818    0.0000 C   0  0
   -5.6491    2.6555    0.0000 C   0  0
   -2.6532    3.1236    0.0000 N   0  0
   -1.2990    0.7500    0.0000 C   0  0
   -1.2990   -0.7500    0.0000 C   0  0
   -2.6003   -1.4978    0.0000 O   0  0
   -3.8983   -0.7459    0.0000 C   0  0
    0.0000   -1.5000    0.0000 C   0  0
    0.0031   -3.0008    0.0000 O   0  0
    1.3032   -3.7490    0.0000 C   0  0
  1  2  1  0
  2  3  1  0
  3  4  2  0
  4  5  1  0
  5  6  1  0
  6  7  2  0
  6  8  1  0
  8  9  2  0
  9 10  1  0
 10 11  1  0
 11 12  1  0
 12 13  2  0
 13 14  1  0
 14 15  2  0
 15 16  1  0
 16 17  1  0
 15 18  1  0
 18 19  2  0
 19 12  1  0
 11 20  2  0
 20  8  1  0
  5 21  2  0
 21 22  1  0
 22 23  1  0
 23 24  1  0
 22 25  2  0
 25  3  1  0
 25 26  1  0
 26 27  1  0
M  END
> <assay_chembl_id>
CHEMBL1832180

> <assay_description>
Anticancer activity against human PPC1 cells after 96 hrs by SRB assay

> <document_journal>
J Med Chem

> <molecule_chembl_id>
CHEMBL1830233

> <standard_value>
34

> <IC50_uM>
0.034

> <Activity>
Yes

> <RemovedSalts>
HCl

> <Canonical_Smiles>
COc1cc(C(=O)c2csc(-c3ccc(CN)cc3)n2)cc(OC)c1OC.Cl

$$$$

  SciTegic03142313312D

 28 31  0  0  0  0            999 V2000
    5.7323   -9.9957    0.0000 C   0  0
    4.2411   -9.8335    0.0000 O   0  0
    3.6348   -8.4606    0.0000 C   0  0
    4.5226   -7.2516    0.0000 C   0  0
    3.9195   -5.8781    0.0000 C   0  0
    4.8054   -4.6666    0.0000 C   0  0
    6.2966   -4.8284    0.0000 O   0  0
    4.2010   -3.2956    0.0000 C   0  0
    4.9531   -1.9978    0.0000 C   0  0
    3.9511   -0.8815    0.0000 S   0  0
    2.5987   -1.5004    0.0000 C   0  0
    1.2990   -0.7500    0.0000 C   0  0
    1.2990    0.7500    0.0000 C   0  0
    0.0000    1.5000    0.0000 C   0  0
   -1.2990    0.7500    0.0000 C   0  0
   -2.7248    1.2135    0.0000 N   0  0
   -3.6065    0.0000    0.0000 C   0  0
   -2.7248   -1.2135    0.0000 C   0  0
   -1.2990   -0.7500    0.0000 C   0  0
    0.0000   -1.5000    0.0000 C   0  0
    2.7343   -2.9815    0.0000 N   0  0
    2.4285   -5.7138    0.0000 C   0  0
    1.5407   -6.9229    0.0000 C   0  0
    0.0492   -6.7554    0.0000 O   0  0
   -0.5520   -5.3811    0.0000 C   0  0
    2.1438   -8.2963    0.0000 C   0  0
    1.2580   -9.5078    0.0000 O   0  0
    1.8631  -10.8803    0.0000 C   0  0
  1  2  1  0
  2  3  1  0
  3  4  2  0
  4  5  1  0
  5  6  1  0
  6  7  2  0
  6  8  1  0
  8  9  2  0
  9 10  1  0
 10 11  1  0
 11 12  1  0
 12 13  2  0
 13 14  1  0
 14 15  2  0
 15 16  1  0
 16 17  1  0
 17 18  2  0
 18 19  1  0
 19 15  1  0
 19 20  2  0
 20 12  1  0
 11 21  2  0
 21  8  1  0
  5 22  2  0
 22 23  1  0
 23 24  1  0
 24 25  1  0
 23 26  2  0
 26  3  1  0
 26 27  1  0
 27 28  1  0
M  END
> <assay_chembl_id>
CHEMBL1832180

> <assay_description>
Anticancer activity against human PPC1 cells after 96 hrs by SRB assay

> <document_journal>
J Med Chem

> <molecule_chembl_id>
CHEMBL1830231

> <standard_value>
8

> <IC50_uM>
0.008

> <Activity>
Yes

> <Canonical_Smiles>
COc1cc(C(=O)c2csc(-c3ccc4[nH]ccc4c3)n2)cc(OC)c1OC

$$$$

  SciTegic03142313312D

 27 29  0  0  0  0            999 V2000
    3.8983   -0.7459    0.0000 C   0  0
    2.6003   -1.4977    0.0000 O   0  0
    1.2990   -0.7500    0.0000 C   0  0
    1.2990    0.7500    0.0000 C   0  0
    0.0000    1.5000    0.0000 C   0  0
   -0.0044    3.0009    0.0000 C   0  0
   -1.3050    3.7498    0.0000 N   0  0
   -2.6044    2.9987    0.0000 C   0  0
   -3.9030    2.2481    0.0000 N   0  0
    1.2928    3.7558    0.0000 C   0  0
    2.6464    3.1392    0.0000 C   0  0
    3.6464    4.2573    0.0000 S   0  0
    2.8921    5.5538    0.0000 C   0  0
    3.4979    6.9269    0.0000 C   0  0
    4.9680    7.1986    0.0000 C   0  0
    5.4686    8.6126    0.0000 C   0  0
    4.4943    9.7531    0.0000 C   0  0
    3.0194    9.4796    0.0000 C   0  0
    2.5189    8.0656    0.0000 C   0  0
    1.4259    5.2371    0.0000 N   0  0
   -1.2990    0.7500    0.0000 C   0  0
   -1.2990   -0.7500    0.0000 C   0  0
   -2.6003   -1.4978    0.0000 O   0  0
   -3.8983   -0.7459    0.0000 C   0  0
    0.0000   -1.5000    0.0000 C   0  0
    0.0031   -3.0008    0.0000 O   0  0
    1.3032   -3.7490    0.0000 C   0  0
  1  2  1  0
  2  3  1  0
  3  4  2  0
  4  5  1  0
  5  6  1  0
  6  7  2  0
  7  8  1  0
  8  9  3  0
  6 10  1  0
 10 11  2  0
 11 12  1  0
 12 13  1  0
 13 14  1  0
 14 15  2  0
 15 16  1  0
 16 17  2  0
 17 18  1  0
 18 19  2  0
 19 14  1  0
 13 20  2  0
 20 10  1  0
  5 21  2  0
 21 22  1  0
 22 23  1  0
 23 24  1  0
 22 25  2  0
 25  3  1  0
 25 26  1  0
 26 27  1  0
M  END
> <assay_chembl_id>
CHEMBL1832180

> <assay_description>
Anticancer activity against human PPC1 cells after 96 hrs by SRB assay

> <document_journal>
J Med Chem

> <molecule_chembl_id>
CHEMBL1830219

> <standard_value>
20

> <IC50_uM>
0.02

> <Activity>
Yes

> <Canonical_Smiles>
COc1cc(/C(=N\C#N)c2csc(-c3ccccc3)n2)cc(OC)c1OC

$$$$

  SciTegic03142313312D

 26 28  0  0  0  0            999 V2000
    3.8983   -0.7459    0.0000 C   0  0
    2.6003   -1.4977    0.0000 O   0  0
    1.2990   -0.7500    0.0000 C   0  0
    1.2990    0.7500    0.0000 C   0  0
    0.0000    1.5000    0.0000 C   0  0
   -0.0031    3.0008    0.0000 C   0  0
    1.2946    3.7531    0.0000 O   0  0
   -1.3039    3.7494    0.0000 C   0  0
   -1.4470    5.2297    0.0000 N   0  0
   -2.9153    5.5365    0.0000 C   0  0
   -3.5304    6.9054    0.0000 C   0  0
   -2.7488    8.1798    0.0000 C   0  0
   -3.4649    9.4979    0.0000 C   0  0
   -4.9644    9.5368    0.0000 C   0  0
   -5.7478    8.2576    0.0000 C   0  0
   -5.0318    6.9395    0.0000 C   0  0
   -3.6607    4.2349    0.0000 C   0  0
   -5.1520    4.0729    0.0000 C   0  0
   -2.6532    3.1236    0.0000 N   0  0
   -1.2990    0.7500    0.0000 C   0  0
   -1.2990   -0.7500    0.0000 C   0  0
   -2.6003   -1.4978    0.0000 O   0  0
   -3.8983   -0.7459    0.0000 C   0  0
    0.0000   -1.5000    0.0000 C   0  0
    0.0031   -3.0008    0.0000 O   0  0
    1.3032   -3.7490    0.0000 C   0  0
  1  2  1  0
  2  3  1  0
  3  4  2  0
  4  5  1  0
  5  6  1  0
  6  7  2  0
  6  8  1  0
  8  9  2  0
  9 10  1  0
 10 11  1  0
 11 12  2  0
 12 13  1  0
 13 14  2  0
 14 15  1  0
 15 16  2  0
 16 11  1  0
 10 17  2  0
 17 18  1  0
 17 19  1  0
 19  8  1  0
  5 20  2  0
 20 21  1  0
 21 22  1  0
 22 23  1  0
 21 24  2  0
 24  3  1  0
 24 25  1  0
 25 26  1  0
M  END
> <assay_chembl_id>
CHEMBL2330841

> <assay_description>
Cytotoxicity against human PPC1 cells assessed as growth inhibition after 96 hrs by SRB assay

> <document_journal>
J Med Chem

> <molecule_chembl_id>
CHEMBL2322319

> <standard_value>
860

> <IC50_uM>
0.86

> <Activity>
Yes

> <Canonical_Smiles>
COc1cc(C(=O)c2nc(-c3ccccc3)c(C)[nH]2)cc(OC)c1OC

$$$$

  SciTegic03142313312D

 31 34  0  0  0  0            999 V2000
    3.8983   -0.7459    0.0000 C   0  0
    2.6003   -1.4977    0.0000 O   0  0
    1.2990   -0.7500    0.0000 C   0  0
    1.2990    0.7500    0.0000 C   0  0
    0.0000    1.5000    0.0000 C   0  0
   -0.0031    3.0008    0.0000 C   0  0
    1.2946    3.7531    0.0000 O   0  0
   -1.3039    3.7494    0.0000 C   0  0
   -2.6532    3.1236    0.0000 N   0  0
   -3.6607    4.2349    0.0000 C   0  0
   -5.1527    4.0728    0.0000 C   0  0
   -5.8565    2.7538    0.0000 C   0  0
   -7.3557    2.7045    0.0000 C   0  0
   -8.1480    3.9781    0.0000 C   0  0
   -7.4411    5.3011    0.0000 C   0  0
   -5.9419    5.3504    0.0000 C   0  0
   -2.9153    5.5365    0.0000 C   0  0
   -1.4470    5.2297    0.0000 N   0  0
   -0.3292    6.2312    0.0000 C   0  0
    1.1235    5.8791    0.0000 C   0  0
    2.1577    6.9656    0.0000 C   0  0
    1.7338    8.4045    0.0000 C   0  0
    0.2758    8.7569    0.0000 C   0  0
   -0.7584    7.6704    0.0000 N   0  0
   -1.2990    0.7500    0.0000 C   0  0
   -1.2990   -0.7500    0.0000 C   0  0
   -2.6003   -1.4978    0.0000 O   0  0
   -3.8983   -0.7459    0.0000 C   0  0
    0.0000   -1.5000    0.0000 C   0  0
    0.0031   -3.0008    0.0000 O   0  0
    1.3032   -3.7490    0.0000 C   0  0
  1  2  1  0
  2  3  1  0
  3  4  2  0
  4  5  1  0
  5  6  1  0
  6  7  2  0
  6  8  1  0
  8  9  2  0
  9 10  1  0
 10 11  1  0
 11 12  2  0
 12 13  1  0
 13 14  2  0
 14 15  1  0
 15 16  2  0
 16 11  1  0
 10 17  2  0
 17 18  1  0
 18  8  1  0
 18 19  1  0
 19 20  2  0
 20 21  1  0
 21 22  2  0
 22 23  1  0
 23 24  2  0
 24 19  1  0
  5 25  2  0
 25 26  1  0
 26 27  1  0
 27 28  1  0
 26 29  2  0
 29  3  1  0
 29 30  1  0
 30 31  1  0
M  END
> <assay_chembl_id>
CHEMBL2330841

> <assay_description>
Cytotoxicity against human PPC1 cells assessed as growth inhibition after 96 hrs by SRB assay

> <document_journal>
J Med Chem

> <molecule_chembl_id>
CHEMBL2322317

> <standard_value>
8

> <IC50_uM>
0.008

> <Activity>
Yes

> <Canonical_Smiles>
COc1cc(C(=O)c2nc(-c3ccccc3)cn2-c2ccccn2)cc(OC)c1OC

$$$$

  SciTegic03142313312D

 30 33  0  0  0  0            999 V2000
    3.8983   -0.7459    0.0000 C   0  0
    2.6003   -1.4977    0.0000 O   0  0
    1.2990   -0.7500    0.0000 C   0  0
    1.2990    0.7500    0.0000 C   0  0
    0.0000    1.5000    0.0000 C   0  0
   -0.0031    3.0008    0.0000 C   0  0
    1.2946    3.7531    0.0000 O   0  0
   -1.3039    3.7494    0.0000 C   0  0
   -2.6532    3.1236    0.0000 N   0  0
   -3.6607    4.2349    0.0000 C   0  0
   -5.1527    4.0728    0.0000 C   0  0
   -5.8565    2.7538    0.0000 C   0  0
   -7.3557    2.7045    0.0000 C   0  0
   -8.1480    3.9781    0.0000 C   0  0
   -7.4411    5.3011    0.0000 C   0  0
   -5.9419    5.3504    0.0000 C   0  0
   -2.9153    5.5365    0.0000 C   0  0
   -1.4470    5.2297    0.0000 N   0  0
   -0.3292    6.2312    0.0000 C   0  0
    1.1382    6.0220    0.0000 C   0  0
    1.7817    7.3769    0.0000 C   0  0
    0.6920    8.4076    0.0000 C   0  0
   -0.6251    7.6897    0.0000 C   0  0
   -1.2990    0.7500    0.0000 C   0  0
   -1.2990   -0.7500    0.0000 C   0  0
   -2.6003   -1.4978    0.0000 O   0  0
   -3.8983   -0.7459    0.0000 C   0  0
    0.0000   -1.5000    0.0000 C   0  0
    0.0031   -3.0008    0.0000 O   0  0
    1.3032   -3.7490    0.0000 C   0  0
  1  2  1  0
  2  3  1  0
  3  4  2  0
  4  5  1  0
  5  6  1  0
  6  7  2  0
  6  8  1  0
  8  9  2  0
  9 10  1  0
 10 11  1  0
 11 12  2  0
 12 13  1  0
 13 14  2  0
 14 15  1  0
 15 16  2  0
 16 11  1  0
 10 17  2  0
 17 18  1  0
 18  8  1  0
 18 19  1  0
 19 20  1  0
 20 21  1  0
 21 22  1  0
 22 23  1  0
 23 19  1  0
  5 24  2  0
 24 25  1  0
 25 26  1  0
 26 27  1  0
 25 28  2  0
 28  3  1  0
 28 29  1  0
 29 30  1  0
M  END
> <assay_chembl_id>
CHEMBL2330841

> <assay_description>
Cytotoxicity against human PPC1 cells assessed as growth inhibition after 96 hrs by SRB assay

> <document_journal>
J Med Chem

> <molecule_chembl_id>
CHEMBL2322316

> <standard_value>
63

> <IC50_uM>
0.063

> <Activity>
Yes

> <Canonical_Smiles>
COc1cc(C(=O)c2nc(-c3ccccc3)cn2C2CCCC2)cc(OC)c1OC

$$$$

  SciTegic03142313312D

 28 30  0  0  0  0            999 V2000
    3.8983   -0.7459    0.0000 C   0  0
    2.6003   -1.4977    0.0000 O   0  0
    1.2990   -0.7500    0.0000 C   0  0
    1.2990    0.7500    0.0000 C   0  0
    0.0000    1.5000    0.0000 C   0  0
   -0.0031    3.0008    0.0000 C   0  0
    1.2946    3.7531    0.0000 O   0  0
   -1.3039    3.7494    0.0000 C   0  0
   -2.6532    3.1236    0.0000 N   0  0
   -3.6607    4.2349    0.0000 C   0  0
   -5.1527    4.0728    0.0000 C   0  0
   -5.8565    2.7538    0.0000 C   0  0
   -7.3557    2.7045    0.0000 C   0  0
   -8.1480    3.9781    0.0000 C   0  0
   -7.4411    5.3011    0.0000 C   0  0
   -5.9419    5.3504    0.0000 C   0  0
   -2.9153    5.5365    0.0000 C   0  0
   -1.4470    5.2297    0.0000 N   0  0
   -0.3315    6.2299    0.0000 C   0  0
   -0.6392    7.6980    0.0000 C   0  0
    1.0940    5.7628    0.0000 C   0  0
   -1.2990    0.7500    0.0000 C   0  0
   -1.2990   -0.7500    0.0000 C   0  0
   -2.6003   -1.4978    0.0000 O   0  0
   -3.8983   -0.7459    0.0000 C   0  0
    0.0000   -1.5000    0.0000 C   0  0
    0.0031   -3.0008    0.0000 O   0  0
    1.3032   -3.7490    0.0000 C   0  0
  1  2  1  0
  2  3  1  0
  3  4  2  0
  4  5  1  0
  5  6  1  0
  6  7  2  0
  6  8  1  0
  8  9  2  0
  9 10  1  0
 10 11  1  0
 11 12  2  0
 12 13  1  0
 13 14  2  0
 14 15  1  0
 15 16  2  0
 16 11  1  0
 10 17  2  0
 17 18  1  0
 18  8  1  0
 18 19  1  0
 19 20  1  0
 19 21  1  0
  5 22  2  0
 22 23  1  0
 23 24  1  0
 24 25  1  0
 23 26  2  0
 26  3  1  0
 26 27  1  0
 27 28  1  0
M  END
> <assay_chembl_id>
CHEMBL2330841

> <assay_description>
Cytotoxicity against human PPC1 cells assessed as growth inhibition after 96 hrs by SRB assay

> <document_journal>
J Med Chem

> <molecule_chembl_id>
CHEMBL2322315

> <standard_value>
15

> <IC50_uM>
0.015

> <Activity>
Yes

> <Canonical_Smiles>
COc1cc(C(=O)c2nc(-c3ccccc3)cn2C(C)C)cc(OC)c1OC

$$$$

  SciTegic03142313312D

 28 30  0  0  0  0            999 V2000
    8.5454   -0.3119    0.0000 C   0  0
    7.0537   -0.4695    0.0000 C   0  0
    6.4430   -1.8405    0.0000 C   0  0
    4.9531   -1.9978    0.0000 N   0  0
    3.9511   -0.8815    0.0000 C   0  0
    2.5987   -1.5004    0.0000 C   0  0
    1.2990   -0.7500    0.0000 C   0  0
    1.2990    0.7500    0.0000 C   0  0
    0.0000    1.5000    0.0000 C   0  0
   -1.2990    0.7500    0.0000 C   0  0
   -1.2990   -0.7500    0.0000 C   0  0
    0.0000   -1.5000    0.0000 C   0  0
    2.7343   -2.9815    0.0000 N   0  0
    4.2010   -3.2956    0.0000 C   0  0
    4.8054   -4.6666    0.0000 C   0  0
    6.2966   -4.8284    0.0000 O   0  0
    3.9195   -5.8781    0.0000 C   0  0
    4.5226   -7.2516    0.0000 C   0  0
    3.6348   -8.4606    0.0000 C   0  0
    4.2411   -9.8335    0.0000 O   0  0
    5.7323   -9.9957    0.0000 C   0  0
    2.1438   -8.2963    0.0000 C   0  0
    1.2531   -9.5042    0.0000 O   0  0
   -0.2377   -9.3377    0.0000 C   0  0
    1.5407   -6.9229    0.0000 C   0  0
    0.0492   -6.7554    0.0000 O   0  0
   -0.5520   -5.3811    0.0000 C   0  0
    2.4285   -5.7138    0.0000 C   0  0
  1  2  1  0
  2  3  1  0
  3  4  1  0
  4  5  1  0
  5  6  2  0
  6  7  1  0
  7  8  2  0
  8  9  1  0
  9 10  2  0
 10 11  1  0
 11 12  2  0
 12  7  1  0
  6 13  1  0
 13 14  2  0
 14  4  1  0
 14 15  1  0
 15 16  2  0
 15 17  1  0
 17 18  2  0
 18 19  1  0
 19 20  1  0
 20 21  1  0
 19 22  2  0
 22 23  1  0
 23 24  1  0
 22 25  1  0
 25 26  1  0
 26 27  1  0
 25 28  2  0
 28 17  1  0
M  END
> <assay_chembl_id>
CHEMBL2330841

> <assay_description>
Cytotoxicity against human PPC1 cells assessed as growth inhibition after 96 hrs by SRB assay

> <document_journal>
J Med Chem

> <molecule_chembl_id>
CHEMBL2322314

> <standard_value>
10

> <IC50_uM>
0.01

> <Activity>
Yes

> <Canonical_Smiles>
CCCn1cc(-c2ccccc2)nc1C(=O)c1cc(OC)c(OC)c(OC)c1

$$$$

  SciTegic03142313312D

 32 35  0  0  0  0            999 V2000
    3.8983   -0.7459    0.0000 C   0  0
    2.6003   -1.4977    0.0000 O   0  0
    1.2990   -0.7500    0.0000 C   0  0
    1.2990    0.7500    0.0000 C   0  0
    0.0000    1.5000    0.0000 C   0  0
   -0.0031    3.0008    0.0000 C   0  0
    1.2946    3.7531    0.0000 O   0  0
   -1.3039    3.7494    0.0000 C   0  0
   -2.6532    3.1236    0.0000 N   0  0
   -3.6607    4.2349    0.0000 C   0  0
   -5.1527    4.0728    0.0000 C   0  0
   -5.8565    2.7538    0.0000 C   0  0
   -7.3557    2.7045    0.0000 C   0  0
   -8.1480    3.9781    0.0000 C   0  0
   -7.4411    5.3011    0.0000 C   0  0
   -5.9419    5.3504    0.0000 C   0  0
   -2.9153    5.5365    0.0000 C   0  0
   -1.4470    5.2297    0.0000 N   0  0
   -0.3315    6.2299    0.0000 C   0  0
   -0.6394    7.6988    0.0000 C   0  0
    0.4760    8.7017    0.0000 C   0  0
    0.1652   10.1692    0.0000 C   0  0
   -1.2611   10.6337    0.0000 C   0  0
   -2.3765    9.6309    0.0000 C   0  0
   -2.0657    8.1634    0.0000 C   0  0
   -1.2990    0.7500    0.0000 C   0  0
   -1.2990   -0.7500    0.0000 C   0  0
   -2.6003   -1.4978    0.0000 O   0  0
   -3.8983   -0.7459    0.0000 C   0  0
    0.0000   -1.5000    0.0000 C   0  0
    0.0031   -3.0008    0.0000 O   0  0
    1.3032   -3.7490    0.0000 C   0  0
  1  2  1  0
  2  3  1  0
  3  4  2  0
  4  5  1  0
  5  6  1  0
  6  7  2  0
  6  8  1  0
  8  9  2  0
  9 10  1  0
 10 11  1  0
 11 12  2  0
 12 13  1  0
 13 14  2  0
 14 15  1  0
 15 16  2  0
 16 11  1  0
 10 17  2  0
 17 18  1  0
 18  8  1  0
 18 19  1  0
 19 20  1  0
 20 21  2  0
 21 22  1  0
 22 23  2  0
 23 24  1  0
 24 25  2  0
 25 20  1  0
  5 26  2  0
 26 27  1  0
 27 28  1  0
 28 29  1  0
 27 30  2  0
 30  3  1  0
 30 31  1  0
 31 32  1  0
M  END
> <assay_chembl_id>
CHEMBL2330841

> <assay_description>
Cytotoxicity against human PPC1 cells assessed as growth inhibition after 96 hrs by SRB assay

> <document_journal>
J Med Chem

> <molecule_chembl_id>
CHEMBL2322313

> <standard_value>
77

> <IC50_uM>
0.077

> <Activity>
Yes

> <Canonical_Smiles>
COc1cc(C(=O)c2nc(-c3ccccc3)cn2Cc2ccccc2)cc(OC)c1OC

$$$$

  SciTegic03142313312D

 27 29  0  0  0  0            999 V2000
    7.0533   -0.4702    0.0000 C   0  0
    6.4430   -1.8405    0.0000 C   0  0
    4.9531   -1.9978    0.0000 N   0  0
    3.9511   -0.8815    0.0000 C   0  0
    2.5987   -1.5004    0.0000 C   0  0
    1.2990   -0.7500    0.0000 C   0  0
    1.2990    0.7500    0.0000 C   0  0
    0.0000    1.5000    0.0000 C   0  0
   -1.2990    0.7500    0.0000 C   0  0
   -1.2990   -0.7500    0.0000 C   0  0
    0.0000   -1.5000    0.0000 C   0  0
    2.7343   -2.9815    0.0000 N   0  0
    4.2010   -3.2956    0.0000 C   0  0
    4.8054   -4.6666    0.0000 C   0  0
    6.2966   -4.8284    0.0000 O   0  0
    3.9195   -5.8781    0.0000 C   0  0
    4.5226   -7.2516    0.0000 C   0  0
    3.6348   -8.4606    0.0000 C   0  0
    4.2411   -9.8335    0.0000 O   0  0
    5.7323   -9.9957    0.0000 C   0  0
    2.1438   -8.2963    0.0000 C   0  0
    1.2531   -9.5042    0.0000 O   0  0
   -0.2377   -9.3377    0.0000 C   0  0
    1.5407   -6.9229    0.0000 C   0  0
    0.0492   -6.7554    0.0000 O   0  0
   -0.5520   -5.3811    0.0000 C   0  0
    2.4285   -5.7138    0.0000 C   0  0
  1  2  1  0
  2  3  1  0
  3  4  1  0
  4  5  2  0
  5  6  1  0
  6  7  2  0
  7  8  1  0
  8  9  2  0
  9 10  1  0
 10 11  2  0
 11  6  1  0
  5 12  1  0
 12 13  2  0
 13  3  1  0
 13 14  1  0
 14 15  2  0
 14 16  1  0
 16 17  2  0
 17 18  1  0
 18 19  1  0
 19 20  1  0
 18 21  2  0
 21 22  1  0
 22 23  1  0
 21 24  1  0
 24 25  1  0
 25 26  1  0
 24 27  2  0
 27 16  1  0
M  END
> <assay_chembl_id>
CHEMBL2330841

> <assay_description>
Cytotoxicity against human PPC1 cells assessed as growth inhibition after 96 hrs by SRB assay

> <document_journal>
J Med Chem

> <molecule_chembl_id>
CHEMBL2322312

> <standard_value>
30

> <IC50_uM>
0.03

> <Activity>
Yes

> <Canonical_Smiles>
CCn1cc(-c2ccccc2)nc1C(=O)c1cc(OC)c(OC)c(OC)c1

$$$$

  SciTegic03142313312D

 26 28  0  0  0  0            999 V2000
    3.8983   -0.7459    0.0000 C   0  0
    2.6003   -1.4977    0.0000 O   0  0
    1.2990   -0.7500    0.0000 C   0  0
    1.2990    0.7500    0.0000 C   0  0
    0.0000    1.5000    0.0000 C   0  0
   -0.0031    3.0008    0.0000 C   0  0
    1.2946    3.7531    0.0000 O   0  0
   -1.3039    3.7494    0.0000 C   0  0
   -2.6532    3.1236    0.0000 N   0  0
   -3.6607    4.2349    0.0000 C   0  0
   -5.1527    4.0728    0.0000 C   0  0
   -5.8565    2.7538    0.0000 C   0  0
   -7.3557    2.7045    0.0000 C   0  0
   -8.1480    3.9781    0.0000 C   0  0
   -7.4411    5.3011    0.0000 C   0  0
   -5.9419    5.3504    0.0000 C   0  0
   -2.9153    5.5365    0.0000 C   0  0
   -1.4470    5.2297    0.0000 N   0  0
   -0.3298    6.2307    0.0000 C   0  0
   -1.2990    0.7500    0.0000 C   0  0
   -1.2990   -0.7500    0.0000 C   0  0
   -2.6003   -1.4978    0.0000 O   0  0
   -3.8983   -0.7459    0.0000 C   0  0
    0.0000   -1.5000    0.0000 C   0  0
    0.0031   -3.0008    0.0000 O   0  0
    1.3032   -3.7490    0.0000 C   0  0
  1  2  1  0
  2  3  1  0
  3  4  2  0
  4  5  1  0
  5  6  1  0
  6  7  2  0
  6  8  1  0
  8  9  2  0
  9 10  1  0
 10 11  1  0
 11 12  2  0
 12 13  1  0
 13 14  2  0
 14 15  1  0
 15 16  2  0
 16 11  1  0
 10 17  2  0
 17 18  1  0
 18  8  1  0
 18 19  1  0
  5 20  2  0
 20 21  1  0
 21 22  1  0
 22 23  1  0
 21 24  2  0
 24  3  1  0
 24 25  1  0
 25 26  1  0
M  END
> <assay_chembl_id>
CHEMBL2330841

> <assay_description>
Cytotoxicity against human PPC1 cells assessed as growth inhibition after 96 hrs by SRB assay

> <document_journal>
J Med Chem

> <molecule_chembl_id>
CHEMBL2322311

> <standard_value>
13

> <IC50_uM>
0.013

> <Activity>
Yes

> <Canonical_Smiles>
COc1cc(C(=O)c2nc(-c3ccccc3)cn2C)cc(OC)c1OC

$$$$

  SciTegic03142313312D

 26 28  0  0  0  0            999 V2000
    3.8983   -0.7459    0.0000 C   0  0
    2.6003   -1.4977    0.0000 O   0  0
    1.2990   -0.7500    0.0000 C   0  0
    1.2990    0.7500    0.0000 C   0  0
    0.0000    1.5000    0.0000 C   0  0
    0.0000    3.0008    0.0000 C   0  0
    1.2121    3.8625    0.0000 C   0  0
    0.7463    5.2884    0.0000 N   0  0
   -0.7537    5.2860    0.0000 C   0  0
   -1.6387    6.4949    0.0000 C   0  0
   -1.0332    7.8672    0.0000 O   0  0
   -3.1309    6.3335    0.0000 C   0  0
   -4.0188    7.5425    0.0000 C   0  0
   -5.5097    7.3781    0.0000 C   0  0
   -6.1129    6.0047    0.0000 C   0  0
   -7.6039    5.8404    0.0000 Br  0  0
   -5.2251    4.7957    0.0000 C   0  0
   -3.7341    4.9600    0.0000 C   0  0
   -1.2149    3.8587    0.0000 N   0  0
   -1.2990    0.7500    0.0000 C   0  0
   -1.2990   -0.7500    0.0000 C   0  0
   -2.6003   -1.4978    0.0000 O   0  0
   -3.8983   -0.7459    0.0000 C   0  0
    0.0000   -1.5000    0.0000 C   0  0
    0.0031   -3.0008    0.0000 O   0  0
    1.3032   -3.7490    0.0000 C   0  0
  1  2  1  0
  2  3  1  0
  3  4  2  0
  4  5  1  0
  5  6  1  0
  6  7  2  0
  7  8  1  0
  8  9  1  0
  9 10  1  0
 10 11  2  0
 10 12  1  0
 12 13  2  0
 13 14  1  0
 14 15  2  0
 15 16  1  0
 15 17  1  0
 17 18  2  0
 18 12  1  0
  9 19  2  0
 19  6  1  0
  5 20  2  0
 20 21  1  0
 21 22  1  0
 22 23  1  0
 21 24  2  0
 24  3  1  0
 24 25  1  0
 25 26  1  0
M  END
> <assay_chembl_id>
CHEMBL2330841

> <assay_description>
Cytotoxicity against human PPC1 cells assessed as growth inhibition after 96 hrs by SRB assay

> <document_journal>
J Med Chem

> <molecule_chembl_id>
CHEMBL2324337

> <standard_value>
106

> <IC50_uM>
0.106

> <Activity>
Yes

> <Canonical_Smiles>
COc1cc(-c2c[nH]c(C(=O)c3ccc(Br)cc3)n2)cc(OC)c1OC

$$$$

  SciTegic03142313312D

 25 27  0  0  0  0            999 V2000
    3.8983   -0.7459    0.0000 C   0  0
    2.6003   -1.4977    0.0000 O   0  0
    1.2990   -0.7500    0.0000 C   0  0
    1.2990    0.7500    0.0000 C   0  0
    0.0000    1.5000    0.0000 C   0  0
    0.0000    3.0008    0.0000 C   0  0
    1.2121    3.8625    0.0000 C   0  0
    0.7463    5.2884    0.0000 N   0  0
   -0.7537    5.2860    0.0000 C   0  0
   -1.6387    6.4949    0.0000 C   0  0
   -1.0332    7.8672    0.0000 O   0  0
   -3.1309    6.3335    0.0000 C   0  0
   -4.0188    7.5425    0.0000 C   0  0
   -5.5097    7.3781    0.0000 C   0  0
   -6.1129    6.0047    0.0000 C   0  0
   -5.2251    4.7957    0.0000 C   0  0
   -3.7341    4.9600    0.0000 C   0  0
   -1.2149    3.8587    0.0000 N   0  0
   -1.2990    0.7500    0.0000 C   0  0
   -1.2990   -0.7500    0.0000 C   0  0
   -2.6003   -1.4978    0.0000 O   0  0
   -3.8983   -0.7459    0.0000 C   0  0
    0.0000   -1.5000    0.0000 C   0  0
    0.0031   -3.0008    0.0000 O   0  0
    1.3032   -3.7490    0.0000 C   0  0
  1  2  1  0
  2  3  1  0
  3  4  2  0
  4  5  1  0
  5  6  1  0
  6  7  2  0
  7  8  1  0
  8  9  1  0
  9 10  1  0
 10 11  2  0
 10 12  1  0
 12 13  2  0
 13 14  1  0
 14 15  2  0
 15 16  1  0
 16 17  2  0
 17 12  1  0
  9 18  2  0
 18  6  1  0
  5 19  2  0
 19 20  1  0
 20 21  1  0
 21 22  1  0
 20 23  2  0
 23  3  1  0
 23 24  1  0
 24 25  1  0
M  END
> <assay_chembl_id>
CHEMBL2330841

> <assay_description>
Cytotoxicity against human PPC1 cells assessed as growth inhibition after 96 hrs by SRB assay

> <document_journal>
J Med Chem

> <molecule_chembl_id>
CHEMBL2324336

> <standard_value>
408

> <IC50_uM>
0.408

> <Activity>
Yes

> <Canonical_Smiles>
COc1cc(-c2c[nH]c(C(=O)c3ccccc3)n2)cc(OC)c1OC

$$$$

  SciTegic03142313312D

 26 28  0  0  0  0            999 V2000
    3.8983   -0.7459    0.0000 C   0  0
    2.6003   -1.4977    0.0000 O   0  0
    1.2990   -0.7500    0.0000 C   0  0
    1.2990    0.7500    0.0000 C   0  0
    0.0000    1.5000    0.0000 C   0  0
   -0.0031    3.0008    0.0000 C   0  0
    1.2946    3.7531    0.0000 O   0  0
   -1.3039    3.7494    0.0000 C   0  0
   -1.4470    5.2297    0.0000 N   0  0
   -2.9153    5.5365    0.0000 C   0  0
   -3.5304    6.9054    0.0000 C   0  0
   -2.7488    8.1798    0.0000 C   0  0
   -3.4649    9.4979    0.0000 C   0  0
   -4.9644    9.5368    0.0000 C   0  0
   -5.6805   10.8548    0.0000 O   0  0
   -5.7478    8.2576    0.0000 C   0  0
   -5.0318    6.9395    0.0000 C   0  0
   -3.6607    4.2349    0.0000 C   0  0
   -2.6532    3.1236    0.0000 N   0  0
   -1.2990    0.7500    0.0000 C   0  0
   -1.2990   -0.7500    0.0000 C   0  0
   -2.6003   -1.4978    0.0000 O   0  0
   -3.8983   -0.7459    0.0000 C   0  0
    0.0000   -1.5000    0.0000 C   0  0
    0.0031   -3.0008    0.0000 O   0  0
    1.3032   -3.7490    0.0000 C   0  0
  1  2  1  0
  2  3  1  0
  3  4  2  0
  4  5  1  0
  5  6  1  0
  6  7  2  0
  6  8  1  0
  8  9  2  0
  9 10  1  0
 10 11  1  0
 11 12  2  0
 12 13  1  0
 13 14  2  0
 14 15  1  0
 14 16  1  0
 16 17  2  0
 17 11  1  0
 10 18  2  0
 18 19  1  0
 19  8  1  0
  5 20  2  0
 20 21  1  0
 21 22  1  0
 22 23  1  0
 21 24  2  0
 24  3  1  0
 24 25  1  0
 25 26  1  0
M  END
> <assay_chembl_id>
CHEMBL2330841

> <assay_description>
Cytotoxicity against human PPC1 cells assessed as growth inhibition after 96 hrs by SRB assay

> <document_journal>
J Med Chem

> <molecule_chembl_id>
CHEMBL2324335

> <standard_value>
122

> <IC50_uM>
0.122

> <Activity>
Yes

> <Canonical_Smiles>
COc1cc(C(=O)c2nc(-c3ccc(O)cc3)c[nH]2)cc(OC)c1OC

$$$$

  SciTegic03142313312D

 28 30  0  0  0  0            999 V2000
    3.8983   -0.7459    0.0000 C   0  0
    2.6003   -1.4977    0.0000 O   0  0
    1.2990   -0.7500    0.0000 C   0  0
    1.2990    0.7500    0.0000 C   0  0
    0.0000    1.5000    0.0000 C   0  0
   -0.0031    3.0008    0.0000 C   0  0
    1.2946    3.7531    0.0000 O   0  0
   -1.3039    3.7494    0.0000 C   0  0
   -1.4470    5.2297    0.0000 N   0  0
   -2.9153    5.5365    0.0000 C   0  0
   -3.5304    6.9054    0.0000 C   0  0
   -2.7488    8.1798    0.0000 C   0  0
   -3.4649    9.4979    0.0000 C   0  0
   -4.9644    9.5368    0.0000 C   0  0
   -5.6836   10.8540    0.0000 N   0  0
   -7.1832   10.8908    0.0000 C   0  0
   -4.9024   12.1346    0.0000 C   0  0
   -5.7478    8.2576    0.0000 C   0  0
   -5.0318    6.9395    0.0000 C   0  0
   -3.6607    4.2349    0.0000 C   0  0
   -2.6532    3.1236    0.0000 N   0  0
   -1.2990    0.7500    0.0000 C   0  0
   -1.2990   -0.7500    0.0000 C   0  0
   -2.6003   -1.4978    0.0000 O   0  0
   -3.8983   -0.7459    0.0000 C   0  0
    0.0000   -1.5000    0.0000 C   0  0
    0.0031   -3.0008    0.0000 O   0  0
    1.3032   -3.7490    0.0000 C   0  0
  1  2  1  0
  2  3  1  0
  3  4  2  0
  4  5  1  0
  5  6  1  0
  6  7  2  0
  6  8  1  0
  8  9  2  0
  9 10  1  0
 10 11  1  0
 11 12  2  0
 12 13  1  0
 13 14  2  0
 14 15  1  0
 15 16  1  0
 15 17  1  0
 14 18  1  0
 18 19  2  0
 19 11  1  0
 10 20  2  0
 20 21  1  0
 21  8  1  0
  5 22  2  0
 22 23  1  0
 23 24  1  0
 24 25  1  0
 23 26  2  0
 26  3  1  0
 26 27  1  0
 27 28  1  0
M  END
> <assay_chembl_id>
CHEMBL2330841

> <assay_description>
Cytotoxicity against human PPC1 cells assessed as growth inhibition after 96 hrs by SRB assay

> <document_journal>
J Med Chem

> <molecule_chembl_id>
CHEMBL2324334

> <standard_value>
120

> <IC50_uM>
0.12

> <Activity>
Yes

> <Canonical_Smiles>
COc1cc(C(=O)c2nc(-c3ccc(N(C)C)cc3)c[nH]2)cc(OC)c1OC

$$$$

  SciTegic03142313312D

 27 29  0  0  0  0            999 V2000
    2.5951   -3.0031    0.0000 C   0  0
    2.5973   -1.5031    0.0000 O   0  0
    1.2990   -0.7500    0.0000 C   0  0
    1.2990    0.7500    0.0000 C   0  0
    0.0000    1.5000    0.0000 C   0  0
   -1.2990    0.7500    0.0000 C   0  0
   -2.5987    1.5004    0.0000 C   0  0
   -2.7390    2.9810    0.0000 C   0  0
   -4.2067    3.2905    0.0000 N   0  0
   -4.9546    1.9903    0.0000 C   0  0
   -6.4441    1.8282    0.0000 C   0  0
   -7.3298    3.0388    0.0000 O   0  0
   -7.0504    0.4553    0.0000 C   0  0
   -8.5414    0.2909    0.0000 C   0  0
   -9.1445   -1.0825    0.0000 C   0  0
  -10.6366   -1.2439    0.0000 O   0  0
  -11.5227   -0.0336    0.0000 C   0  0
   -8.2567   -2.2916    0.0000 C   0  0
   -8.8573   -3.6670    0.0000 O   0  0
   -7.9678   -4.8747    0.0000 C   0  0
   -6.7657   -2.1272    0.0000 C   0  0
   -5.8749   -3.3351    0.0000 O   0  0
   -4.3842   -3.1686    0.0000 C   0  0
   -6.1626   -0.7538    0.0000 C   0  0
   -3.9492    0.8772    0.0000 N   0  0
   -1.2990   -0.7500    0.0000 C   0  0
    0.0000   -1.5000    0.0000 C   0  0
  1  2  1  0
  2  3  1  0
  3  4  2  0
  4  5  1  0
  5  6  2  0
  6  7  1  0
  7  8  2  0
  8  9  1  0
  9 10  1  0
 10 11  1  0
 11 12  2  0
 11 13  1  0
 13 14  2  0
 14 15  1  0
 15 16  1  0
 16 17  1  0
 15 18  2  0
 18 19  1  0
 19 20  1  0
 18 21  1  0
 21 22  1  0
 22 23  1  0
 21 24  2  0
 24 13  1  0
 10 25  2  0
 25  7  1  0
  6 26  1  0
 26 27  2  0
 27  3  1  0
M  END
> <assay_chembl_id>
CHEMBL2330841

> <assay_description>
Cytotoxicity against human PPC1 cells assessed as growth inhibition after 96 hrs by SRB assay

> <document_journal>
J Med Chem

> <molecule_chembl_id>
CHEMBL2324333

> <standard_value>
54

> <IC50_uM>
0.054

> <Activity>
Yes

> <Canonical_Smiles>
COc1ccc(-c2c[nH]c(C(=O)c3cc(OC)c(OC)c(OC)c3)n2)cc1

$$$$

  SciTegic03142313312D

 26 28  0  0  0  0            999 V2000
    3.8983   -0.7459    0.0000 C   0  0
    2.6003   -1.4977    0.0000 O   0  0
    1.2990   -0.7500    0.0000 C   0  0
    1.2990    0.7500    0.0000 C   0  0
    0.0000    1.5000    0.0000 C   0  0
   -0.0031    3.0008    0.0000 C   0  0
    1.2946    3.7531    0.0000 O   0  0
   -1.3039    3.7494    0.0000 C   0  0
   -1.4470    5.2297    0.0000 N   0  0
   -2.9153    5.5365    0.0000 C   0  0
   -3.5304    6.9054    0.0000 C   0  0
   -2.7488    8.1798    0.0000 C   0  0
   -3.4649    9.4979    0.0000 C   0  0
   -4.9644    9.5368    0.0000 C   0  0
   -5.6805   10.8548    0.0000 C   0  0
   -5.7478    8.2576    0.0000 C   0  0
   -5.0318    6.9395    0.0000 C   0  0
   -3.6607    4.2349    0.0000 C   0  0
   -2.6532    3.1236    0.0000 N   0  0
   -1.2990    0.7500    0.0000 C   0  0
   -1.2990   -0.7500    0.0000 C   0  0
   -2.6003   -1.4978    0.0000 O   0  0
   -3.8983   -0.7459    0.0000 C   0  0
    0.0000   -1.5000    0.0000 C   0  0
    0.0031   -3.0008    0.0000 O   0  0
    1.3032   -3.7490    0.0000 C   0  0
  1  2  1  0
  2  3  1  0
  3  4  2  0
  4  5  1  0
  5  6  1  0
  6  7  2  0
  6  8  1  0
  8  9  2  0
  9 10  1  0
 10 11  1  0
 11 12  2  0
 12 13  1  0
 13 14  2  0
 14 15  1  0
 14 16  1  0
 16 17  2  0
 17 11  1  0
 10 18  2  0
 18 19  1  0
 19  8  1  0
  5 20  2  0
 20 21  1  0
 21 22  1  0
 22 23  1  0
 21 24  2  0
 24  3  1  0
 24 25  1  0
 25 26  1  0
M  END
> <assay_chembl_id>
CHEMBL2330841

> <assay_description>
Cytotoxicity against human PPC1 cells assessed as growth inhibition after 96 hrs by SRB assay

> <document_journal>
J Med Chem

> <molecule_chembl_id>
CHEMBL2321902

> <standard_value>
18

> <IC50_uM>
0.018

> <Activity>
Yes

> <Canonical_Smiles>
COc1cc(C(=O)c2nc(-c3ccc(C)cc3)c[nH]2)cc(OC)c1OC

$$$$

  SciTegic03142313312D

 29 31  0  0  0  0            999 V2000
    3.8983   -0.7459    0.0000 C   0  0
    2.6003   -1.4977    0.0000 O   0  0
    1.2990   -0.7500    0.0000 C   0  0
    1.2990    0.7500    0.0000 C   0  0
    0.0000    1.5000    0.0000 C   0  0
   -0.0031    3.0008    0.0000 C   0  0
    1.2946    3.7531    0.0000 O   0  0
   -1.3039    3.7494    0.0000 C   0  0
   -1.4470    5.2297    0.0000 N   0  0
   -2.9153    5.5365    0.0000 C   0  0
   -3.5304    6.9054    0.0000 C   0  0
   -2.7488    8.1798    0.0000 C   0  0
   -3.4649    9.4979    0.0000 C   0  0
   -4.9644    9.5368    0.0000 C   0  0
   -5.6809   10.8555    0.0000 C   0  0
   -4.8983   12.1352    0.0000 F   0  0
   -7.1804   10.8939    0.0000 F   0  0
   -6.3976   12.1732    0.0000 F   0  0
   -5.7478    8.2576    0.0000 C   0  0
   -5.0318    6.9395    0.0000 C   0  0
   -3.6607    4.2349    0.0000 C   0  0
   -2.6532    3.1236    0.0000 N   0  0
   -1.2990    0.7500    0.0000 C   0  0
   -1.2990   -0.7500    0.0000 C   0  0
   -2.6003   -1.4978    0.0000 O   0  0
   -3.8983   -0.7459    0.0000 C   0  0
    0.0000   -1.5000    0.0000 C   0  0
    0.0031   -3.0008    0.0000 O   0  0
    1.3032   -3.7490    0.0000 C   0  0
  1  2  1  0
  2  3  1  0
  3  4  2  0
  4  5  1  0
  5  6  1  0
  6  7  2  0
  6  8  1  0
  8  9  2  0
  9 10  1  0
 10 11  1  0
 11 12  2  0
 12 13  1  0
 13 14  2  0
 14 15  1  0
 15 16  1  0
 15 17  1  0
 15 18  1  0
 14 19  1  0
 19 20  2  0
 20 11  1  0
 10 21  2  0
 21 22  1  0
 22  8  1  0
  5 23  2  0
 23 24  1  0
 24 25  1  0
 25 26  1  0
 24 27  2  0
 27  3  1  0
 27 28  1  0
 28 29  1  0
M  END
> <assay_chembl_id>
CHEMBL2330841

> <assay_description>
Cytotoxicity against human PPC1 cells assessed as growth inhibition after 96 hrs by SRB assay

> <document_journal>
J Med Chem

> <molecule_chembl_id>
CHEMBL2323924

> <standard_value>
74

> <IC50_uM>
0.074

> <Activity>
Yes

> <Canonical_Smiles>
COc1cc(C(=O)c2nc(-c3ccc(C(F)(F)F)cc3)c[nH]2)cc(OC)c1OC

$$$$

  SciTegic03142313312D

 26 28  0  0  0  0            999 V2000
    3.8983   -0.7459    0.0000 C   0  0
    2.6003   -1.4977    0.0000 O   0  0
    1.2990   -0.7500    0.0000 C   0  0
    1.2990    0.7500    0.0000 C   0  0
    0.0000    1.5000    0.0000 C   0  0
   -0.0031    3.0008    0.0000 C   0  0
    1.2946    3.7531    0.0000 O   0  0
   -1.3039    3.7494    0.0000 C   0  0
   -1.4470    5.2297    0.0000 N   0  0
   -2.9153    5.5365    0.0000 C   0  0
   -3.5304    6.9054    0.0000 C   0  0
   -2.7488    8.1798    0.0000 C   0  0
   -3.4649    9.4979    0.0000 C   0  0
   -4.9644    9.5368    0.0000 C   0  0
   -5.6805   10.8548    0.0000 Br  0  0
   -5.7478    8.2576    0.0000 C   0  0
   -5.0318    6.9395    0.0000 C   0  0
   -3.6607    4.2349    0.0000 C   0  0
   -2.6532    3.1236    0.0000 N   0  0
   -1.2990    0.7500    0.0000 C   0  0
   -1.2990   -0.7500    0.0000 C   0  0
   -2.6003   -1.4978    0.0000 O   0  0
   -3.8983   -0.7459    0.0000 C   0  0
    0.0000   -1.5000    0.0000 C   0  0
    0.0031   -3.0008    0.0000 O   0  0
    1.3032   -3.7490    0.0000 C   0  0
  1  2  1  0
  2  3  1  0
  3  4  2  0
  4  5  1  0
  5  6  1  0
  6  7  2  0
  6  8  1  0
  8  9  2  0
  9 10  1  0
 10 11  1  0
 11 12  2  0
 12 13  1  0
 13 14  2  0
 14 15  1  0
 14 16  1  0
 16 17  2  0
 17 11  1  0
 10 18  2  0
 18 19  1  0
 19  8  1  0
  5 20  2  0
 20 21  1  0
 21 22  1  0
 22 23  1  0
 21 24  2  0
 24  3  1  0
 24 25  1  0
 25 26  1  0
M  END
> <assay_chembl_id>
CHEMBL2330841

> <assay_description>
Cytotoxicity against human PPC1 cells assessed as growth inhibition after 96 hrs by SRB assay

> <document_journal>
J Med Chem

> <molecule_chembl_id>
CHEMBL2323923

> <standard_value>
30

> <IC50_uM>
0.03

> <Activity>
Yes

> <Canonical_Smiles>
COc1cc(C(=O)c2nc(-c3ccc(Br)cc3)c[nH]2)cc(OC)c1OC

$$$$

  SciTegic03142313312D

 26 28  0  0  0  0            999 V2000
    3.8983   -0.7459    0.0000 C   0  0
    2.6003   -1.4977    0.0000 O   0  0
    1.2990   -0.7500    0.0000 C   0  0
    1.2990    0.7500    0.0000 C   0  0
    0.0000    1.5000    0.0000 C   0  0
   -0.0031    3.0008    0.0000 C   0  0
    1.2946    3.7531    0.0000 O   0  0
   -1.3039    3.7494    0.0000 C   0  0
   -1.4470    5.2297    0.0000 N   0  0
   -2.9153    5.5365    0.0000 C   0  0
   -3.5304    6.9054    0.0000 C   0  0
   -2.7488    8.1798    0.0000 C   0  0
   -3.4649    9.4979    0.0000 C   0  0
   -4.9644    9.5368    0.0000 C   0  0
   -5.6805   10.8548    0.0000 Cl  0  0
   -5.7478    8.2576    0.0000 C   0  0
   -5.0318    6.9395    0.0000 C   0  0
   -3.6607    4.2349    0.0000 C   0  0
   -2.6532    3.1236    0.0000 N   0  0
   -1.2990    0.7500    0.0000 C   0  0
   -1.2990   -0.7500    0.0000 C   0  0
   -2.6003   -1.4978    0.0000 O   0  0
   -3.8983   -0.7459    0.0000 C   0  0
    0.0000   -1.5000    0.0000 C   0  0
    0.0031   -3.0008    0.0000 O   0  0
    1.3032   -3.7490    0.0000 C   0  0
  1  2  1  0
  2  3  1  0
  3  4  2  0
  4  5  1  0
  5  6  1  0
  6  7  2  0
  6  8  1  0
  8  9  2  0
  9 10  1  0
 10 11  1  0
 11 12  2  0
 12 13  1  0
 13 14  2  0
 14 15  1  0
 14 16  1  0
 16 17  2  0
 17 11  1  0
 10 18  2  0
 18 19  1  0
 19  8  1  0
  5 20  2  0
 20 21  1  0
 21 22  1  0
 22 23  1  0
 21 24  2  0
 24  3  1  0
 24 25  1  0
 25 26  1  0
M  END
> <assay_chembl_id>
CHEMBL2330841

> <assay_description>
Cytotoxicity against human PPC1 cells assessed as growth inhibition after 96 hrs by SRB assay

> <document_journal>
J Med Chem

> <molecule_chembl_id>
CHEMBL2323922

> <standard_value>
51

> <IC50_uM>
0.051

> <Activity>
Yes

> <Canonical_Smiles>
COc1cc(C(=O)c2nc(-c3ccc(Cl)cc3)c[nH]2)cc(OC)c1OC

$$$$

  SciTegic03142313312D

 26 28  0  0  0  0            999 V2000
    3.8983   -0.7459    0.0000 C   0  0
    2.6003   -1.4977    0.0000 O   0  0
    1.2990   -0.7500    0.0000 C   0  0
    1.2990    0.7500    0.0000 C   0  0
    0.0000    1.5000    0.0000 C   0  0
   -0.0031    3.0008    0.0000 C   0  0
    1.2946    3.7531    0.0000 O   0  0
   -1.3039    3.7494    0.0000 C   0  0
   -1.4470    5.2297    0.0000 N   0  0
   -2.9153    5.5365    0.0000 C   0  0
   -3.5304    6.9054    0.0000 C   0  0
   -2.7488    8.1798    0.0000 C   0  0
   -3.4649    9.4979    0.0000 C   0  0
   -4.9644    9.5368    0.0000 C   0  0
   -5.6805   10.8548    0.0000 F   0  0
   -5.7478    8.2576    0.0000 C   0  0
   -5.0318    6.9395    0.0000 C   0  0
   -3.6607    4.2349    0.0000 C   0  0
   -2.6532    3.1236    0.0000 N   0  0
   -1.2990    0.7500    0.0000 C   0  0
   -1.2990   -0.7500    0.0000 C   0  0
   -2.6003   -1.4978    0.0000 O   0  0
   -3.8983   -0.7459    0.0000 C   0  0
    0.0000   -1.5000    0.0000 C   0  0
    0.0031   -3.0008    0.0000 O   0  0
    1.3032   -3.7490    0.0000 C   0  0
  1  2  1  0
  2  3  1  0
  3  4  2  0
  4  5  1  0
  5  6  1  0
  6  7  2  0
  6  8  1  0
  8  9  2  0
  9 10  1  0
 10 11  1  0
 11 12  2  0
 12 13  1  0
 13 14  2  0
 14 15  1  0
 14 16  1  0
 16 17  2  0
 17 11  1  0
 10 18  2  0
 18 19  1  0
 19  8  1  0
  5 20  2  0
 20 21  1  0
 21 22  1  0
 22 23  1  0
 21 24  2  0
 24  3  1  0
 24 25  1  0
 25 26  1  0
M  END
> <assay_chembl_id>
CHEMBL2330841

> <assay_description>
Cytotoxicity against human PPC1 cells assessed as growth inhibition after 96 hrs by SRB assay

> <document_journal>
J Med Chem

> <molecule_chembl_id>
CHEMBL2323921

> <standard_value>
134

> <IC50_uM>
0.134

> <Activity>
Yes

> <Canonical_Smiles>
COc1cc(C(=O)c2nc(-c3ccc(F)cc3)c[nH]2)cc(OC)c1OC

$$$$

  SciTegic03142313312D

 25 27  0  0  0  0            999 V2000
    3.8983   -0.7459    0.0000 C   0  0
    2.6003   -1.4977    0.0000 O   0  0
    1.2990   -0.7500    0.0000 C   0  0
    1.2990    0.7500    0.0000 C   0  0
    0.0000    1.5000    0.0000 C   0  0
   -0.0031    3.0008    0.0000 C   0  0
    1.2946    3.7531    0.0000 O   0  0
   -1.3039    3.7494    0.0000 C   0  0
   -1.4470    5.2297    0.0000 N   0  0
   -2.9153    5.5365    0.0000 C   0  0
   -3.5304    6.9054    0.0000 C   0  0
   -2.7488    8.1798    0.0000 C   0  0
   -3.4649    9.4979    0.0000 C   0  0
   -4.9644    9.5368    0.0000 C   0  0
   -5.7478    8.2576    0.0000 C   0  0
   -5.0318    6.9395    0.0000 C   0  0
   -3.6607    4.2349    0.0000 C   0  0
   -2.6532    3.1236    0.0000 N   0  0
   -1.2990    0.7500    0.0000 C   0  0
   -1.2990   -0.7500    0.0000 C   0  0
   -2.6003   -1.4978    0.0000 O   0  0
   -3.8983   -0.7459    0.0000 C   0  0
    0.0000   -1.5000    0.0000 C   0  0
    0.0031   -3.0008    0.0000 O   0  0
    1.3032   -3.7490    0.0000 C   0  0
  1  2  1  0
  2  3  1  0
  3  4  2  0
  4  5  1  0
  5  6  1  0
  6  7  2  0
  6  8  1  0
  8  9  2  0
  9 10  1  0
 10 11  1  0
 11 12  2  0
 12 13  1  0
 13 14  2  0
 14 15  1  0
 15 16  2  0
 16 11  1  0
 10 17  2  0
 17 18  1  0
 18  8  1  0
  5 19  2  0
 19 20  1  0
 20 21  1  0
 21 22  1  0
 20 23  2  0
 23  3  1  0
 23 24  1  0
 24 25  1  0
M  END
> <assay_chembl_id>
CHEMBL2330841

> <assay_description>
Cytotoxicity against human PPC1 cells assessed as growth inhibition after 96 hrs by SRB assay

> <document_journal>
J Med Chem

> <molecule_chembl_id>
CHEMBL2323920

> <standard_value>
13

> <IC50_uM>
0.013

> <Activity>
Yes

> <Canonical_Smiles>
COc1cc(C(=O)c2nc(-c3ccccc3)c[nH]2)cc(OC)c1OC

$$$$

  SciTegic03142313312D

 23 25  0  0  0  0            999 V2000
    2.5951   -3.0031    0.0000 C   0  0
    2.5973   -1.5031    0.0000 O   0  0
    1.2990   -0.7500    0.0000 C   0  0
    1.2990    0.7500    0.0000 C   0  0
    0.0000    1.5000    0.0000 C   0  0
   -1.2990    0.7500    0.0000 C   0  0
   -2.6003    1.4977    0.0000 C   0  0
   -2.6030    2.9977    0.0000 O   0  0
   -3.8990    0.7455    0.0000 C   0  0
   -5.2526    1.3618    0.0000 N   0  0
   -6.2524    0.2436    0.0000 C   0  0
   -7.7454    0.3952    0.0000 C   0  0
   -8.4584    1.7093    0.0000 C   0  0
   -9.9579    1.7482    0.0000 C   0  0
  -10.7413    0.4691    0.0000 C   0  0
  -12.2417    0.5049    0.0000 O   0  0
  -13.0233   -0.7754    0.0000 C   0  0
  -10.0252   -0.8490    0.0000 C   0  0
   -8.5257   -0.8879    0.0000 C   0  0
   -5.4979   -1.0529    0.0000 C   0  0
   -4.0317   -0.7359    0.0000 N   0  0
   -1.2990   -0.7500    0.0000 C   0  0
    0.0000   -1.5000    0.0000 C   0  0
  1  2  1  0
  2  3  1  0
  3  4  2  0
  4  5  1  0
  5  6  2  0
  6  7  1  0
  7  8  2  0
  7  9  1  0
  9 10  2  0
 10 11  1  0
 11 12  1  0
 12 13  2  0
 13 14  1  0
 14 15  2  0
 15 16  1  0
 16 17  1  0
 15 18  1  0
 18 19  2  0
 19 12  1  0
 11 20  2  0
 20 21  1  0
 21  9  1  0
  6 22  1  0
 22 23  2  0
 23  3  1  0
M  END
> <assay_chembl_id>
CHEMBL2330841

> <assay_description>
Cytotoxicity against human PPC1 cells assessed as growth inhibition after 96 hrs by SRB assay

> <document_journal>
J Med Chem

> <molecule_chembl_id>
CHEMBL2323918

> <standard_value>
38150

> <IC50_uM>
38.15

> <Activity>
No

> <Canonical_Smiles>
COc1ccc(C(=O)c2nc(-c3ccc(OC)cc3)c[nH]2)cc1

$$$$

  SciTegic03142313312D

 29 31  0  0  0  0            999 V2000
    3.8983   -0.7459    0.0000 C   0  0
    2.6003   -1.4977    0.0000 O   0  0
    1.2990   -0.7500    0.0000 C   0  0
    1.2990    0.7500    0.0000 C   0  0
    0.0000    1.5000    0.0000 C   0  0
   -0.0031    3.0008    0.0000 C   0  0
    1.2946    3.7531    0.0000 O   0  0
   -1.3039    3.7494    0.0000 C   0  0
   -1.4470    5.2297    0.0000 C   0  0
   -2.9153    5.5365    0.0000 N   0  0
   -3.6607    4.2349    0.0000 C   0  0
   -5.1527    4.0728    0.0000 C   0  0
   -6.1233    5.2100    0.0000 C   0  0
   -7.5981    4.9362    0.0000 C   0  0
   -8.0984    3.5221    0.0000 C   0  0
   -9.5740    3.2482    0.0000 C   0  0
  -10.5492    4.3880    0.0000 C   0  0
  -10.0739    1.8340    0.0000 C   0  0
  -11.0487    2.9738    0.0000 C   0  0
   -7.1240    2.3818    0.0000 C   0  0
   -5.6491    2.6555    0.0000 C   0  0
   -2.6532    3.1236    0.0000 N   0  0
   -1.2990    0.7500    0.0000 C   0  0
   -1.2990   -0.7500    0.0000 C   0  0
   -2.6003   -1.4978    0.0000 O   0  0
   -3.8983   -0.7459    0.0000 C   0  0
    0.0000   -1.5000    0.0000 C   0  0
    0.0031   -3.0008    0.0000 O   0  0
    1.3032   -3.7490    0.0000 C   0  0
  1  2  1  0
  2  3  1  0
  3  4  2  0
  4  5  1  0
  5  6  1  0
  6  7  2  0
  6  8  1  0
  8  9  2  0
  9 10  1  0
 10 11  1  0
 11 12  1  0
 12 13  2  0
 13 14  1  0
 14 15  2  0
 15 16  1  0
 16 17  1  0
 16 18  1  0
 16 19  1  0
 15 20  1  0
 20 21  2  0
 21 12  1  0
 11 22  2  0
 22  8  1  0
  5 23  2  0
 23 24  1  0
 24 25  1  0
 25 26  1  0
 24 27  2  0
 27  3  1  0
 27 28  1  0
 28 29  1  0
M  END
> <assay_chembl_id>
CHEMBL2330841

> <assay_description>
Cytotoxicity against human PPC1 cells assessed as growth inhibition after 96 hrs by SRB assay

> <document_journal>
J Med Chem

> <molecule_chembl_id>
CHEMBL2323906

> <standard_value>
294

> <IC50_uM>
0.294

> <Activity>
Yes

> <Canonical_Smiles>
COc1cc(C(=O)c2c[nH]c(-c3ccc(C(C)(C)C)cc3)n2)cc(OC)c1OC

$$$$

  SciTegic03142313312D

 28 30  0  0  0  0            999 V2000
    3.8983   -0.7459    0.0000 C   0  0
    2.6003   -1.4977    0.0000 O   0  0
    1.2990   -0.7500    0.0000 C   0  0
    1.2990    0.7500    0.0000 C   0  0
    0.0000    1.5000    0.0000 C   0  0
   -0.0031    3.0008    0.0000 C   0  0
    1.2946    3.7531    0.0000 O   0  0
   -1.3039    3.7494    0.0000 C   0  0
   -1.4470    5.2297    0.0000 C   0  0
   -2.9153    5.5365    0.0000 N   0  0
   -3.6607    4.2349    0.0000 C   0  0
   -5.1527    4.0728    0.0000 C   0  0
   -6.1233    5.2100    0.0000 C   0  0
   -7.5981    4.9362    0.0000 C   0  0
   -8.0984    3.5221    0.0000 C   0  0
   -9.5735    3.2452    0.0000 C   0  0
  -10.0718    1.8304    0.0000 C   0  0
  -10.5499    4.3839    0.0000 C   0  0
   -7.1240    2.3818    0.0000 C   0  0
   -5.6491    2.6555    0.0000 C   0  0
   -2.6532    3.1236    0.0000 N   0  0
   -1.2990    0.7500    0.0000 C   0  0
   -1.2990   -0.7500    0.0000 C   0  0
   -2.6003   -1.4978    0.0000 O   0  0
   -3.8983   -0.7459    0.0000 C   0  0
    0.0000   -1.5000    0.0000 C   0  0
    0.0031   -3.0008    0.0000 O   0  0
    1.3032   -3.7490    0.0000 C   0  0
  1  2  1  0
  2  3  1  0
  3  4  2  0
  4  5  1  0
  5  6  1  0
  6  7  2  0
  6  8  1  0
  8  9  2  0
  9 10  1  0
 10 11  1  0
 11 12  1  0
 12 13  2  0
 13 14  1  0
 14 15  2  0
 15 16  1  0
 16 17  1  0
 16 18  1  0
 15 19  1  0
 19 20  2  0
 20 12  1  0
 11 21  2  0
 21  8  1  0
  5 22  2  0
 22 23  1  0
 23 24  1  0
 24 25  1  0
 23 26  2  0
 26  3  1  0
 26 27  1  0
 27 28  1  0
M  END
> <assay_chembl_id>
CHEMBL2330841

> <assay_description>
Cytotoxicity against human PPC1 cells assessed as growth inhibition after 96 hrs by SRB assay

> <document_journal>
J Med Chem

> <molecule_chembl_id>
CHEMBL2323905

> <standard_value>
173

> <IC50_uM>
0.173

> <Activity>
Yes

> <Canonical_Smiles>
COc1cc(C(=O)c2c[nH]c(-c3ccc(C(C)C)cc3)n2)cc(OC)c1OC

$$$$

  SciTegic03142313312D

 27 29  0  0  0  0            999 V2000
    2.5951   -3.0031    0.0000 C   0  0
    2.5973   -1.5031    0.0000 C   0  0
    1.2990   -0.7500    0.0000 C   0  0
    1.2990    0.7500    0.0000 C   0  0
    0.0000    1.5000    0.0000 C   0  0
   -1.2990    0.7500    0.0000 C   0  0
   -2.5987    1.5004    0.0000 C   0  0
   -2.7390    2.9810    0.0000 N   0  0
   -4.2067    3.2905    0.0000 C   0  0
   -4.8211    4.6570    0.0000 C   0  0
   -3.9435    5.8735    0.0000 O   0  0
   -6.3142    4.8094    0.0000 C   0  0
   -6.9313    6.1766    0.0000 C   0  0
   -8.4239    6.3258    0.0000 C   0  0
   -9.0384    7.6950    0.0000 O   0  0
   -8.1612    8.9118    0.0000 C   0  0
   -9.2994    5.1078    0.0000 C   0  0
  -10.7931    5.2541    0.0000 O   0  0
  -11.6669    4.0348    0.0000 C   0  0
   -8.6823    3.7406    0.0000 C   0  0
   -9.5558    2.5202    0.0000 O   0  0
   -8.9369    1.1538    0.0000 C   0  0
   -7.1898    3.5914    0.0000 C   0  0
   -4.9546    1.9903    0.0000 C   0  0
   -3.9492    0.8772    0.0000 N   0  0
   -1.2990   -0.7500    0.0000 C   0  0
    0.0000   -1.5000    0.0000 C   0  0
  1  2  1  0
  2  3  1  0
  3  4  2  0
  4  5  1  0
  5  6  2  0
  6  7  1  0
  7  8  2  0
  8  9  1  0
  9 10  1  0
 10 11  2  0
 10 12  1  0
 12 13  2  0
 13 14  1  0
 14 15  1  0
 15 16  1  0
 14 17  2  0
 17 18  1  0
 18 19  1  0
 17 20  1  0
 20 21  1  0
 21 22  1  0
 20 23  2  0
 23 12  1  0
  9 24  2  0
 24 25  1  0
 25  7  1  0
  6 26  1  0
 26 27  2  0
 27  3  1  0
M  END
> <assay_chembl_id>
CHEMBL2330841

> <assay_description>
Cytotoxicity against human PPC1 cells assessed as growth inhibition after 96 hrs by SRB assay

> <document_journal>
J Med Chem

> <molecule_chembl_id>
CHEMBL2323904

> <standard_value>
15

> <IC50_uM>
0.015

> <Activity>
Yes

> <Canonical_Smiles>
CCc1ccc(-c2nc(C(=O)c3cc(OC)c(OC)c(OC)c3)c[nH]2)cc1

$$$$
