
  SciTegic03142313312D

 27 29  0  0  0  0            999 V2000
    2.5981   -1.5000    0.0000 N   0  0
    1.2990   -0.7500    0.0000 C   0  0
    1.2990    0.7500    0.0000 C   0  0
    0.0000    1.5000    0.0000 C   0  0
   -1.2990    0.7500    0.0000 C   0  0
   -1.2990   -0.7500    0.0000 C   0  0
    0.0000   -1.5000    0.0000 C   0  0
   -0.0031   -3.0008    0.0000 C   0  0
    1.2947   -3.7531    0.0000 O   0  0
   -1.3039   -3.7494    0.0000 N   0  0
   -1.3070   -5.2502    0.0000 C   0  0
   -0.0092   -6.0025    0.0000 O   0  0
   -2.6078   -5.9988    0.0000 N   0  0
   -2.6109   -7.4996    0.0000 C   0  0
   -3.9099   -8.2497    0.0000 C   0  0
   -3.9099   -9.7497    0.0000 C   0  0
   -2.6109  -10.4997    0.0000 C   0  0
   -2.6079  -12.0005    0.0000 S   0  0
   -1.3071  -12.7491    0.0000 C   0  0
   -1.3018  -14.2491    0.0000 N   0  0
   -0.0002  -14.9947    0.0000 C   0  0
    1.2962  -14.2402    0.0000 C   0  0
    2.5979  -14.9857    0.0000 Br  0  0
    1.2911  -12.7402    0.0000 C   0  0
   -0.0105  -11.9947    0.0000 N   0  0
   -1.3119   -9.7497    0.0000 C   0  0
   -1.3118   -8.2497    0.0000 C   0  0
  1  2  1  0
  2  3  2  0
  3  4  1  0
  4  5  2  0
  5  6  1  0
  6  7  2  0
  7  2  1  0
  7  8  1  0
  8  9  2  0
  8 10  1  0
 10 11  1  0
 11 12  2  0
 11 13  1  0
 13 14  1  0
 14 15  2  0
 15 16  1  0
 16 17  2  0
 17 18  1  0
 18 19  1  0
 19 20  2  0
 20 21  1  0
 21 22  2  0
 22 23  1  0
 22 24  1  0
 24 25  2  0
 25 19  1  0
 17 26  1  0
 26 27  2  0
 27 14  1  0
M  END
> <assay_chembl_id>
CHEMBL860886

> <assay_description>
Cytotoxicity against human CWR22R cell line by MTT assay

> <document_journal>
J Med Chem

> <molecule_chembl_id>
CHEMBL203996

> <standard_value>
500

> <IC50_uM>
0.5

> <Activity>
Yes

> <Canonical_Smiles>
Nc1ccccc1C(=O)NC(=O)Nc1ccc(Sc2ncc(Br)cn2)cc1

$$$$

  SciTegic03142313312D

 29 31  0  0  0  0            999 V2000
    5.2029   -2.9932    0.0000 O   0  0
    5.2003   -1.4932    0.0000 C   0  0
    3.8990   -0.7455    0.0000 N   0  0
    2.6003   -1.4977    0.0000 C   0  0
    2.6030   -2.9977    0.0000 O   0  0
    1.2990   -0.7500    0.0000 C   0  0
    1.2990    0.7500    0.0000 C   0  0
    0.0000    1.5000    0.0000 C   0  0
   -1.2990    0.7500    0.0000 C   0  0
   -1.2990   -0.7500    0.0000 C   0  0
    0.0000   -1.5000    0.0000 C   0  0
   -0.0031   -3.0008    0.0000 N   0  3
   -1.3032   -3.7490    0.0000 O   0  0
    1.2947   -3.7531    0.0000 O   0  5
    6.4990   -0.7409    0.0000 N   0  0
    7.8003   -1.4887    0.0000 C   0  0
    9.0994   -0.7387    0.0000 C   0  0
   10.3984   -1.4887    0.0000 C   0  0
   10.3985   -2.9887    0.0000 C   0  0
   11.6967   -3.7417    0.0000 S   0  0
   11.6946   -5.2426    0.0000 C   0  0
   12.9911   -5.9971    0.0000 N   0  0
   12.9859   -7.4971    0.0000 C   0  0
   11.6843   -8.2426    0.0000 C   0  0
   11.6791   -9.7426    0.0000 Br  0  0
   10.3878   -7.4882    0.0000 C   0  0
   10.3930   -5.9882    0.0000 N   0  0
    9.0995   -3.7387    0.0000 C   0  0
    7.8004   -2.9887    0.0000 C   0  0
  1  2  2  0
  2  3  1  0
  3  4  1  0
  4  5  2  0
  4  6  1  0
  6  7  2  0
  7  8  1  0
  8  9  2  0
  9 10  1  0
 10 11  2  0
 11  6  1  0
 11 12  1  0
 12 13  2  0
 12 14  1  0
  2 15  1  0
 15 16  1  0
 16 17  2  0
 17 18  1  0
 18 19  2  0
 19 20  1  0
 20 21  1  0
 21 22  2  0
 22 23  1  0
 23 24  2  0
 24 25  1  0
 24 26  1  0
 26 27  2  0
 27 21  1  0
 19 28  1  0
 28 29  2  0
 29 16  1  0
M  CHG  2  12   1  14  -1
M  END
> <assay_chembl_id>
CHEMBL860886

> <assay_description>
Cytotoxicity against human CWR22R cell line by MTT assay

> <document_journal>
J Med Chem

> <molecule_chembl_id>
CHEMBL205487

> <standard_value>
50

> <IC50_uM>
0.05

> <Activity>
Yes

> <Canonical_Smiles>
O=C(NC(=O)c1ccccc1[N+](=O)[O-])Nc1ccc(Sc2ncc(Br)cn2)cc1

$$$$

  SciTegic03142313312D

 16 17  0  0  0  0            999 V2000
    3.8983   -0.7459    0.0000 C   0  0
    2.6003   -1.4977    0.0000 N   0  0
    1.2990   -0.7500    0.0000 C   0  0
    1.2990    0.7500    0.0000 C   0  0
    0.0000    1.5000    0.0000 C   0  0
    0.0000    3.0000    0.0000 O   0  0
   -1.2990    0.7500    0.0000 C   0  0
   -1.2990   -0.7500    0.0000 C   0  0
   -2.5981   -1.5000    0.0000 C   0  0
   -3.8971   -0.7500    0.0000 N   0  0
   -3.8971    0.7500    0.0000 C   0  0
   -5.1962    1.5000    0.0000 C   0  0
   -2.5981    1.5000    0.0000 C   0  0
   -2.5981    3.0000    0.0000 C   0  0
    0.0000   -1.5000    0.0000 C   0  0
    0.0000   -3.0000    0.0000 O   0  0
  1  2  1  0
  2  3  1  0
  3  4  2  0
  4  5  1  0
  5  6  2  0
  5  7  1  0
  7  8  2  0
  8  9  1  0
  9 10  2  0
 10 11  1  0
 11 12  1  0
 11 13  2  0
 13  7  1  0
 13 14  1  0
  8 15  1  0
 15  3  1  0
 15 16  2  0
M  END
> <assay_chembl_id>
CHEMBL1110243

> <assay_description>
Cytotoxicity against human 22Rv1 cells after 4 days by propidium iodide assay

> <document_journal>
J Nat Prod

> <molecule_chembl_id>
CHEMBL1079851

> <standard_value>
21740

> <IC50_uM>
21.74

> <Activity>
No

> <Canonical_Smiles>
CNC1=CC(=O)c2c(cnc(C)c2C)C1=O

$$$$

  SciTegic03142313312D

 17 18  0  0  0  0            999 V2000
    3.8926   -3.7566    0.0000 C   0  0
    2.5951   -3.0039    0.0000 O   0  0
    2.5973   -1.5031    0.0000 C   0  0
    3.8976   -0.7553    0.0000 O   0  0
    1.2990   -0.7500    0.0000 C   0  0
    1.2990    0.7500    0.0000 C   0  0
    0.0000    1.5000    0.0000 C   0  0
   -1.2990    0.7500    0.0000 C   0  0
   -1.2990   -0.7500    0.0000 C   0  0
    0.0000   -1.5000    0.0000 N   0  0
   -2.5981    1.5000    0.0000 C   0  0
   -3.8971    0.7500    0.0000 O   0  0
   -2.5981    3.0000    0.0000 C   0  0
   -3.8971    3.7500    0.0000 N   0  0
   -1.2991    3.7500    0.0000 C   0  0
    0.0000    3.0000    0.0000 C   0  0
    1.2990    3.7500    0.0000 O   0  0
  1  2  1  0
  2  3  1  0
  3  4  2  0
  3  5  1  0
  5  6  2  0
  6  7  1  0
  7  8  2  0
  8  9  1  0
  9 10  2  0
 10  5  1  0
  8 11  1  0
 11 12  2  0
 11 13  1  0
 13 14  1  0
 13 15  2  0
 15 16  1  0
 16  7  1  0
 16 17  2  0
M  END
> <assay_chembl_id>
CHEMBL1110243

> <assay_description>
Cytotoxicity against human 22Rv1 cells after 4 days by propidium iodide assay

> <document_journal>
J Nat Prod

> <molecule_chembl_id>
CHEMBL1080354

> <standard_value>
671

> <IC50_uM>
0.671

> <Activity>
Yes

> <Canonical_Smiles>
COC(=O)c1cc2c(cn1)C(=O)C(N)=CC2=O

$$$$

  SciTegic03142313312D

 26 28  0  0  0  0            999 V2000
    7.3532   -3.3675    0.0000 C   0  0
    6.3509   -2.2515    0.0000 C   0  0
    4.8823   -2.5608    0.0000 C   0  0
    3.8794   -1.4442    0.0000 C   0  0
    2.4133   -1.7530    0.0000 N   0  0
    1.2990   -0.7500    0.0000 C   0  0
    1.2990    0.7500    0.0000 C   0  0
    0.0000    1.5000    0.0000 C   0  0
   -1.2990    0.7500    0.0000 C   0  0
   -1.2990   -0.7500    0.0000 C   0  0
    0.0000   -1.5000    0.0000 C   0  0
    0.3114   -2.9665    0.0000 C   0  0
   -0.5701   -4.1788    0.0000 C   0  0
    0.0400   -5.5491    0.0000 C   0  0
   -0.8397   -6.7651    0.0000 C   0  0
   -0.2273   -8.1353    0.0000 N   0  0
   -1.1069   -9.3513    0.0000 C   0  0
   -0.4945  -10.7215    0.0000 C   0  0
   -1.3742  -11.9375    0.0000 N   0  0
   -0.7618  -13.3077    0.0000 C   0  0
   -1.6410  -14.5231    0.0000 C   0  0
   -2.8674  -11.7863    0.0000 C   0  0
   -3.7452  -13.0026    0.0000 C   0  0
    1.5318   -5.7059    0.0000 N   0  0
    2.4135   -4.4923    0.0000 C   0  0
    1.8032   -3.1233    0.0000 C   0  0
  1  2  1  0
  2  3  1  0
  3  4  1  0
  4  5  1  0
  5  6  1  0
  6  7  2  0
  7  8  1  0
  8  9  2  0
  9 10  1  0
 10 11  2  0
 11  6  1  0
 11 12  1  0
 12 13  2  0
 13 14  1  0
 14 15  1  0
 15 16  1  0
 16 17  1  0
 17 18  1  0
 18 19  1  0
 19 20  1  0
 20 21  1  0
 19 22  1  0
 22 23  1  0
 14 24  2  0
 24 25  1  0
 25 26  2  0
 26 12  1  0
 26  5  1  0
M  END
> <assay_chembl_id>
CHEMBL1175374

> <assay_description>
Cytotoxicity against human 22Rv1 cells by MTT assay

> <document_journal>
Bioorg Med Chem Lett

> <molecule_chembl_id>
CHEMBL1172127

> <standard_value>
25700

> <IC50_uM>
25.7

> <Activity>
No

> <Canonical_Smiles>
CCCCn1c2ccccc2c2cc(CNCCN(CC)CC)ncc21

$$$$

  SciTegic03142313312D

 30 33  0  0  0  0            999 V2000
    6.4848   -8.2644    0.0000 C   0  0
    5.1873   -7.5117    0.0000 C   0  0
    5.1894   -6.0109    0.0000 N   0  0
    6.4889   -5.2601    0.0000 C   0  0
    6.4894   -3.7601    0.0000 C   0  0
    3.8912   -5.2578    0.0000 C   0  0
    3.8933   -3.7570    0.0000 C   0  0
    2.5951   -3.0039    0.0000 N   0  0
    2.5973   -1.5031    0.0000 C   0  0
    1.2990   -0.7500    0.0000 C   0  0
    1.2990    0.7500    0.0000 C   0  0
    0.0000    1.5000    0.0000 C   0  0
   -0.3115    2.9665    0.0000 C   0  0
    0.5701    4.1788    0.0000 C   0  0
   -0.0400    5.5491    0.0000 C   0  0
   -1.5318    5.7059    0.0000 C   0  0
   -2.4135    4.4923    0.0000 C   0  0
   -1.8032    3.1233    0.0000 C   0  0
   -2.4133    1.7530    0.0000 N   0  0
   -3.8781    1.4381    0.0000 C   0  0
   -4.3396    0.0100    0.0000 C   0  0
   -5.8056   -0.3074    0.0000 C   0  0
   -6.2639   -1.7357    0.0000 C   0  0
   -5.2561   -2.8467    0.0000 C   0  0
   -3.7901   -2.5294    0.0000 C   0  0
   -2.7823   -3.6404    0.0000 Cl  0  0
   -3.3318   -1.1011    0.0000 C   0  0
   -1.2990    0.7500    0.0000 C   0  0
   -1.2990   -0.7500    0.0000 C   0  0
    0.0000   -1.5000    0.0000 N   0  0
  1  2  1  0
  2  3  1  0
  3  4  1  0
  4  5  1  0
  3  6  1  0
  6  7  1  0
  7  8  1  0
  8  9  1  0
  9 10  1  0
 10 11  2  0
 11 12  1  0
 12 13  1  0
 13 14  2  0
 14 15  1  0
 15 16  2  0
 16 17  1  0
 17 18  2  0
 18 13  1  0
 18 19  1  0
 19 20  1  0
 20 21  1  0
 21 22  2  0
 22 23  1  0
 23 24  2  0
 24 25  1  0
 25 26  1  0
 25 27  2  0
 27 21  1  0
 19 28  1  0
 28 12  2  0
 28 29  1  0
 29 30  2  0
 30 10  1  0
M  END
> <assay_chembl_id>
CHEMBL1175374

> <assay_description>
Cytotoxicity against human 22Rv1 cells by MTT assay

> <document_journal>
Bioorg Med Chem Lett

> <molecule_chembl_id>
CHEMBL1169975

> <standard_value>
58500

> <IC50_uM>
58.5

> <Activity>
No

> <Canonical_Smiles>
CCN(CC)CCNCc1cc2c3ccccc3n(Cc3cccc(Cl)c3)c2cn1

$$$$

  SciTegic03142313312D

 62 68  0  0  1  0            999 V2000
   -2.5378  -11.6641    0.0000 C   0  0
   -4.0148  -11.9258    0.0000 C   0  0
   -4.5262  -13.3359    0.0000 O   0  0
   -4.9801  -10.7766    0.0000 O   0  0
   -4.9817   -9.2754    0.0000 C   0  0  1  0  0  0
   -3.7152  -10.0114    0.0000 C   0  0
   -2.4168   -9.2604    0.0000 O   0  0
   -3.7088  -11.4849    0.0000 C   0  0  1  0  0  0
   -2.4103  -10.7339    0.0000 C   0  0
   -4.9652  -12.2088    0.0000 C   0  0  2  0  0  0
   -6.2367  -11.4641    0.0000 C   0  0  2  0  0  0
   -7.5385  -12.2118    0.0000 O   0  0
   -9.0161  -11.9490    0.0000 C   0  0
   -9.5265  -10.5385    0.0000 O   0  0
   -9.9833  -13.0966    0.0000 C   0  0
  -11.4605  -12.8361    0.0000 C   0  0
  -12.4248  -13.9850    0.0000 C   0  0
  -11.9119  -15.3946    0.0000 C   0  0
  -10.4347  -15.6553    0.0000 C   0  0
   -9.4704  -14.5063    0.0000 C   0  0
   -6.2382   -9.9992    0.0000 C   0  0  2  0  0  0
   -7.5379  -10.7480    0.0000 O   0  0
   -7.5047   -9.2632    0.0000 C   0  0
   -7.5111   -7.7897    0.0000 C   0  0  2  0  0  0
   -8.8107   -7.0384    0.0000 O   0  0
   -8.8110   -5.5375    0.0000 C   0  0
   -7.5118   -4.7877    0.0000 O   0  0
  -10.1104   -4.7865    0.0000 C   0  0  2  0  0  0
  -11.4095   -5.5363    0.0000 O   0  0
  -10.1106   -3.2857    0.0000 C   0  0  1  0  0  0
  -11.4100   -2.5347    0.0000 N   0  0
  -11.4103   -1.0339    0.0000 C   0  0
  -10.1111   -0.2840    0.0000 O   0  0
  -12.7097   -0.2828    0.0000 C   0  0
  -14.0107   -1.0295    0.0000 C   0  0
  -15.3078   -0.2763    0.0000 C   0  0
  -15.3041    1.2237    0.0000 C   0  0
  -14.0032    1.9705    0.0000 C   0  0
  -12.7060    1.2172    0.0000 C   0  0
   -8.8108   -2.5355    0.0000 C   0  0
   -8.8085   -1.0354    0.0000 C   0  0
   -7.5083   -0.2874    0.0000 C   0  0
   -6.2104   -1.0394    0.0000 C   0  0
   -6.2126   -2.5394    0.0000 C   0  0
   -7.5128   -3.2874    0.0000 C   0  0
   -6.2547   -7.0658    0.0000 C   0  0
   -6.2493   -5.5658    0.0000 C   0  0
   -4.9832   -7.8105    0.0000 C   0  0
   -7.8612   -9.8263    0.0000 C   0  0
   -8.2894  -11.2639    0.0000 C   0  0
   -8.9317   -8.7756    0.0000 C   0  0
   -4.9638  -13.6736    0.0000 C   0  0  2  0  0  0
   -6.4578  -13.6704    0.0000 O   0  0
   -7.2091  -14.9696    0.0000 C   0  0
   -6.4596  -16.2690    0.0000 C   0  0
   -8.7091  -14.9696    0.0000 O   0  0
   -5.6911  -14.9351    0.0000 C   0  0
   -4.4333  -15.6762    0.0000 O   0  0
   -3.6923  -14.4183    0.0000 C   0  0  2  0  0  0
   -2.4359  -13.6945    0.0000 C   0  0
   -2.4423  -12.2210    0.0000 C   0  0  2  0  0  0
   -1.1438  -11.4700    0.0000 O   0  0
  1  2  1  0
  2  3  2  0
  2  4  1  0
  5  4  1  6
  5  6  1  0
  6  7  2  0
  6  8  1  0
  8  9  1  1
 10  8  1  1
 10 11  1  0
 11 12  1  6
 12 13  1  0
 13 14  2  0
 13 15  1  0
 15 16  2  0
 16 17  1  0
 17 18  2  0
 18 19  1  0
 19 20  2  0
 20 15  1  0
 11 21  1  0
 21 22  1  6
 21 23  1  0
 23 24  1  0
 24 25  1  6
 25 26  1  0
 26 27  2  0
 26 28  1  0
 28 29  1  6
 28 30  1  0
 30 31  1  1
 31 32  1  0
 32 33  2  0
 32 34  1  0
 34 35  2  0
 35 36  1  0
 36 37  2  0
 37 38  1  0
 38 39  2  0
 39 34  1  0
 30 40  1  0
 40 41  2  0
 41 42  1  0
 42 43  2  0
 43 44  1  0
 44 45  2  0
 45 40  1  0
 24 46  1  0
 46 47  1  0
 46 48  2  0
 48  5  1  0
 48 49  1  0
 49 21  1  0
 49 50  1  0
 49 51  1  0
 10 52  1  0
 52 53  1  6
 53 54  1  0
 54 55  1  0
 54 56  2  0
 52 57  1  0
 57 58  1  0
 59 58  1  1
 59 52  1  0
 59 60  1  0
 60 61  1  0
 61  8  1  0
 61 62  1  1
M  END
> <assay_chembl_id>
CHEMBL1175374

> <assay_description>
Cytotoxicity against human 22Rv1 cells by MTT assay

> <document_journal>
Bioorg Med Chem Lett

> <molecule_chembl_id>
CHEMBL428647

> <standard_value>
80

> <IC50_uM>
0.08

> <Activity>
Yes

> <Canonical_Smiles>
CC(=O)O[C@H]1C(=O)[C@@]2(C)[C@H]([C@H](OC(=O)c3ccccc3)[C@]3(O)C[C@H](OC(=O)[C@H](O)[C@@H](NC(=O)c4ccccc4)c4ccccc4)C(C)=C1C3(C)C)[C@]1(OC(C)=O)CO[C@@H]1C[C@@H]2O

$$$$

  SciTegic03142313312D

 23 25  0  0  0  0            999 V2000
   12.9995   -1.4792    0.0000 N   0  0
   11.6990   -0.7319    0.0000 C   0  0
   10.4003   -1.4841    0.0000 C   0  0
    9.0990   -0.7364    0.0000 C   0  0
    7.8003   -1.4887    0.0000 C   0  0
    6.4990   -0.7409    0.0000 C   0  0
    5.2003   -1.4932    0.0000 C   0  0
    3.8990   -0.7455    0.0000 N   0  0
    2.6003   -1.4977    0.0000 C   0  0
    2.6030   -2.9977    0.0000 O   0  0
    1.2990   -0.7500    0.0000 C   0  0
    1.2990    0.7500    0.0000 N   0  0
    0.0000    1.5000    0.0000 C   0  0
   -1.2990    0.7500    0.0000 C   0  0
   -1.2990   -0.7500    0.0000 C   0  0
    0.0000   -1.5000    0.0000 C   0  0
   -0.3114   -2.9665    0.0000 N   0  0
   -1.8032   -3.1233    0.0000 C   0  0
   -2.6837   -4.3363    0.0000 C   0  0
   -4.1755   -4.1795    0.0000 C   0  0
   -4.7856   -2.8092    0.0000 C   0  0
   -3.9040   -1.5957    0.0000 C   0  0
   -2.4133   -1.7530    0.0000 C   0  0
  1  2  1  0
  2  3  1  0
  3  4  1  0
  4  5  1  0
  5  6  1  0
  6  7  1  0
  7  8  1  0
  8  9  1  0
  9 10  2  0
  9 11  1  0
 11 12  2  0
 12 13  1  0
 13 14  2  0
 14 15  1  0
 15 16  2  0
 16 11  1  0
 16 17  1  0
 17 18  1  0
 18 19  2  0
 19 20  1  0
 20 21  2  0
 21 22  1  0
 22 23  2  0
 23 18  1  0
 23 15  1  0
M  END
> <assay_chembl_id>
CHEMBL1285642

> <assay_description>
Cytotoxicity against human 22Rv1 cells by MTT assay

> <document_journal>
Eur J Med Chem

> <molecule_chembl_id>
CHEMBL1277909

> <standard_value>
33600

> <IC50_uM>
33.6

> <Activity>
No

> <Canonical_Smiles>
NCCCCCCNC(=O)c1nccc2c1[nH]c1ccccc12

$$$$

  SciTegic03142313312D

 24 26  0  0  0  0            999 V2000
   11.6982   -0.7323    0.0000 C   0  0
   10.4003   -1.4841    0.0000 C   0  0
    9.0990   -0.7364    0.0000 N   0  0
    9.0933    0.7644    0.0000 C   0  0
    7.7919    1.5103    0.0000 C   0  0
    7.8003   -1.4887    0.0000 C   0  0
    6.4990   -0.7409    0.0000 C   0  0
    5.2003   -1.4932    0.0000 C   0  0
    3.8990   -0.7455    0.0000 N   0  0
    2.6003   -1.4977    0.0000 C   0  0
    2.6030   -2.9977    0.0000 O   0  0
    1.2990   -0.7500    0.0000 C   0  0
    1.2990    0.7500    0.0000 N   0  0
    0.0000    1.5000    0.0000 C   0  0
   -1.2990    0.7500    0.0000 C   0  0
   -1.2990   -0.7500    0.0000 C   0  0
    0.0000   -1.5000    0.0000 C   0  0
   -0.3114   -2.9665    0.0000 N   0  0
   -1.8032   -3.1233    0.0000 C   0  0
   -2.6837   -4.3363    0.0000 C   0  0
   -4.1755   -4.1795    0.0000 C   0  0
   -4.7856   -2.8092    0.0000 C   0  0
   -3.9040   -1.5957    0.0000 C   0  0
   -2.4133   -1.7530    0.0000 C   0  0
  1  2  1  0
  2  3  1  0
  3  4  1  0
  4  5  1  0
  3  6  1  0
  6  7  1  0
  7  8  1  0
  8  9  1  0
  9 10  1  0
 10 11  2  0
 10 12  1  0
 12 13  2  0
 13 14  1  0
 14 15  2  0
 15 16  1  0
 16 17  2  0
 17 12  1  0
 17 18  1  0
 18 19  1  0
 19 20  2  0
 20 21  1  0
 21 22  2  0
 22 23  1  0
 23 24  2  0
 24 19  1  0
 24 16  1  0
M  END
> <assay_chembl_id>
CHEMBL1285642

> <assay_description>
Cytotoxicity against human 22Rv1 cells by MTT assay

> <document_journal>
Eur J Med Chem

> <molecule_chembl_id>
CHEMBL1277991

> <standard_value>
46200

> <IC50_uM>
46.2

> <Activity>
No

> <Canonical_Smiles>
CCN(CC)CCCNC(=O)c1nccc2c1[nH]c1ccccc12

$$$$

  SciTegic03142313312D

 31 34  0  0  0  0            999 V2000
   10.3936    1.5174    0.0000 C   0  0
    9.0964    0.7643    0.0000 C   0  0
    9.0990   -0.7364    0.0000 N   0  3
    7.7709    0.0232    0.0000 C   0  0
    7.7639    1.5232    0.0000 C   0  0
    7.8003   -1.4887    0.0000 C   0  0
    6.4990   -0.7409    0.0000 C   0  0
    5.2003   -1.4932    0.0000 C   0  0
    3.8990   -0.7455    0.0000 N   0  0
    2.6003   -1.4977    0.0000 C   0  0
    2.6030   -2.9977    0.0000 O   0  0
    1.2990   -0.7500    0.0000 C   0  0
    1.2990    0.7500    0.0000 N   0  0
    0.0000    1.5000    0.0000 C   0  0
   -1.2990    0.7500    0.0000 C   0  0
   -1.2990   -0.7500    0.0000 C   0  0
    0.0000   -1.5000    0.0000 C   0  0
   -0.3114   -2.9665    0.0000 N   0  0
   -1.8032   -3.1233    0.0000 C   0  0
   -2.6837   -4.3363    0.0000 C   0  0
   -4.1755   -4.1795    0.0000 C   0  0
   -4.7856   -2.8092    0.0000 C   0  0
   -3.9040   -1.5957    0.0000 C   0  0
   -2.4133   -1.7530    0.0000 C   0  0
   10.4003   -1.4841    0.0000 C   0  0
   11.6990   -0.7319    0.0000 C   0  0
   13.0007   -1.4773    0.0000 C   0  0
   14.2971   -0.7228    0.0000 C   0  0
   14.2919    0.7772    0.0000 C   0  0
   12.9903    1.5227    0.0000 C   0  0
   11.6938    0.7682    0.0000 C   0  0
  1  2  1  0
  2  3  1  0
  3  4  1  0
  4  5  1  0
  3  6  1  0
  6  7  1  0
  7  8  1  0
  8  9  1  0
  9 10  1  0
 10 11  2  0
 10 12  1  0
 12 13  2  0
 13 14  1  0
 14 15  2  0
 15 16  1  0
 16 17  2  0
 17 12  1  0
 17 18  1  0
 18 19  1  0
 19 20  2  0
 20 21  1  0
 21 22  2  0
 22 23  1  0
 23 24  2  0
 24 19  1  0
 24 16  1  0
  3 25  1  0
 25 26  1  0
 26 27  2  0
 27 28  1  0
 28 29  2  0
 29 30  1  0
 30 31  2  0
 31 26  1  0
M  CHG  1   3   1
M  END
> <assay_chembl_id>
CHEMBL1285642

> <assay_description>
Cytotoxicity against human 22Rv1 cells by MTT assay

> <document_journal>
Eur J Med Chem

> <molecule_chembl_id>
CHEMBL1278079

> <standard_value>
71400

> <IC50_uM>
71.4

> <Activity>
No

> <RemovedSalts>
Br-

> <Canonical_Smiles>
CC[N+](CC)(CCCNC(=O)c1nccc2c1[nH]c1ccccc12)Cc1ccccc1.[Br-]

$$$$

  SciTegic03142313312D

 33 36  0  0  0  0            999 V2000
   11.6982   -0.7323    0.0000 C   0  0
   10.4003   -1.4841    0.0000 C   0  0
    9.0990   -0.7364    0.0000 N   0  0
    9.0933    0.7644    0.0000 C   0  0
    7.7919    1.5103    0.0000 C   0  0
    7.8003   -1.4887    0.0000 C   0  0
    6.4990   -0.7409    0.0000 C   0  0
    5.2003   -1.4932    0.0000 C   0  0
    3.8990   -0.7455    0.0000 N   0  0
    2.6003   -1.4977    0.0000 C   0  0
    2.6030   -2.9977    0.0000 O   0  0
    1.2990   -0.7500    0.0000 C   0  0
    1.2990    0.7500    0.0000 N   0  0
    0.0000    1.5000    0.0000 C   0  0
   -1.2990    0.7500    0.0000 C   0  0
   -1.2990   -0.7500    0.0000 C   0  0
   -2.4133   -1.7530    0.0000 C   0  0
   -3.9040   -1.5957    0.0000 C   0  0
   -4.7856   -2.8092    0.0000 C   0  0
   -4.1755   -4.1795    0.0000 C   0  0
   -2.6837   -4.3363    0.0000 C   0  0
   -1.8032   -3.1233    0.0000 C   0  0
   -0.3114   -2.9665    0.0000 N   0  0
    0.6936   -4.0776    0.0000 C   0  0
    2.1611   -3.7632    0.0000 C   0  0
    3.1679   -4.8762    0.0000 C   0  0
    4.6354   -4.5617    0.0000 C   0  0
    5.6433   -5.6727    0.0000 C   0  0
    7.1094   -5.3554    0.0000 C   0  0
    7.5677   -3.9272    0.0000 C   0  0
    6.5599   -2.8162    0.0000 C   0  0
    5.0938   -3.1334    0.0000 C   0  0
    0.0000   -1.5000    0.0000 C   0  0
  1  2  1  0
  2  3  1  0
  3  4  1  0
  4  5  1  0
  3  6  1  0
  6  7  1  0
  7  8  1  0
  8  9  1  0
  9 10  1  0
 10 11  2  0
 10 12  1  0
 12 13  2  0
 13 14  1  0
 14 15  2  0
 15 16  1  0
 16 17  1  0
 17 18  2  0
 18 19  1  0
 19 20  2  0
 20 21  1  0
 21 22  2  0
 22 17  1  0
 22 23  1  0
 23 24  1  0
 24 25  1  0
 25 26  1  0
 26 27  1  0
 27 28  2  0
 28 29  1  0
 29 30  2  0
 30 31  1  0
 31 32  2  0
 32 27  1  0
 23 33  1  0
 33 12  1  0
 33 16  2  0
M  END
> <assay_chembl_id>
CHEMBL1285642

> <assay_description>
Cytotoxicity against human 22Rv1 cells by MTT assay

> <document_journal>
Eur J Med Chem

> <molecule_chembl_id>
CHEMBL1278168

> <standard_value>
26900

> <IC50_uM>
26.9

> <Activity>
No

> <Canonical_Smiles>
CCN(CC)CCCNC(=O)c1nccc2c3ccccc3n(CCCc3ccccc3)c12

$$$$

  SciTegic03142313312D

 17 19  0  0  0  0            999 V2000
    6.4983   -0.7414    0.0000 N   0  0
    5.2003   -1.4932    0.0000 C   0  0
    3.8990   -0.7455    0.0000 C   0  0
    2.6003   -1.4977    0.0000 N   0  0
    1.2990   -0.7500    0.0000 C   0  0
    1.2990    0.7500    0.0000 N   0  0
    0.0000    1.5000    0.0000 C   0  0
   -1.2990    0.7500    0.0000 C   0  0
   -1.2990   -0.7500    0.0000 C   0  0
    0.0000   -1.5000    0.0000 C   0  0
   -0.3114   -2.9665    0.0000 N   0  0
   -1.8032   -3.1233    0.0000 C   0  0
   -2.6837   -4.3363    0.0000 C   0  0
   -4.1755   -4.1795    0.0000 C   0  0
   -4.7856   -2.8092    0.0000 C   0  0
   -3.9040   -1.5957    0.0000 C   0  0
   -2.4133   -1.7530    0.0000 C   0  0
  1  2  1  0
  2  3  1  0
  3  4  1  0
  4  5  1  0
  5  6  2  0
  6  7  1  0
  7  8  2  0
  8  9  1  0
  9 10  2  0
 10  5  1  0
 10 11  1  0
 11 12  1  0
 12 13  2  0
 13 14  1  0
 14 15  2  0
 15 16  1  0
 16 17  2  0
 17 12  1  0
 17  9  1  0
M  END
> <assay_chembl_id>
CHEMBL1285642

> <assay_description>
Cytotoxicity against human 22Rv1 cells by MTT assay

> <document_journal>
Eur J Med Chem

> <molecule_chembl_id>
CHEMBL1275663

> <standard_value>
41300

> <IC50_uM>
41.3

> <Activity>
No

> <Canonical_Smiles>
NCCNc1nccc2c1[nH]c1ccccc12

$$$$

  SciTegic03142313312D

 23 26  0  0  0  0            999 V2000
    2.5981   -1.5000    0.0000 Br  0  0
    1.2990   -0.7500    0.0000 C   0  0
    1.2990    0.7500    0.0000 N   0  0
    0.0000    1.5000    0.0000 C   0  0
   -1.2990    0.7500    0.0000 C   0  0
   -1.2990   -0.7500    0.0000 C   0  0
   -2.4133   -1.7530    0.0000 C   0  0
   -3.9040   -1.5957    0.0000 C   0  0
   -4.7856   -2.8092    0.0000 C   0  0
   -4.1755   -4.1795    0.0000 C   0  0
   -2.6837   -4.3363    0.0000 C   0  0
   -1.8032   -3.1233    0.0000 C   0  0
   -0.3114   -2.9665    0.0000 N   0  0
    0.6936   -4.0776    0.0000 C   0  0
    2.1611   -3.7632    0.0000 C   0  0
    3.1679   -4.8762    0.0000 C   0  0
    4.6354   -4.5617    0.0000 C   0  0
    5.6433   -5.6727    0.0000 C   0  0
    7.1094   -5.3554    0.0000 C   0  0
    7.5677   -3.9272    0.0000 C   0  0
    6.5599   -2.8162    0.0000 C   0  0
    5.0938   -3.1334    0.0000 C   0  0
    0.0000   -1.5000    0.0000 C   0  0
  1  2  1  0
  2  3  2  0
  3  4  1  0
  4  5  2  0
  5  6  1  0
  6  7  1  0
  7  8  2  0
  8  9  1  0
  9 10  2  0
 10 11  1  0
 11 12  2  0
 12  7  1  0
 12 13  1  0
 13 14  1  0
 14 15  1  0
 15 16  1  0
 16 17  1  0
 17 18  2  0
 18 19  1  0
 19 20  2  0
 20 21  1  0
 21 22  2  0
 22 17  1  0
 13 23  1  0
 23  2  1  0
 23  6  2  0
M  END
> <assay_chembl_id>
CHEMBL1285642

> <assay_description>
Cytotoxicity against human 22Rv1 cells by MTT assay

> <document_journal>
Eur J Med Chem

> <molecule_chembl_id>
CHEMBL1276828

> <standard_value>
88000

> <IC50_uM>
88

> <Activity>
No

> <Canonical_Smiles>
Brc1nccc2c3ccccc3n(CCCc3ccccc3)c12

$$$$

  SciTegic03142313312D

 27 29  0  0  0  0            999 V2000
    7.3532   -3.3675    0.0000 C   0  0
    6.3509   -2.2515    0.0000 C   0  0
    4.8823   -2.5608    0.0000 C   0  0
    3.8794   -1.4442    0.0000 C   0  0
    2.4133   -1.7530    0.0000 N   0  0
    1.2990   -0.7500    0.0000 C   0  0
    1.2990    0.7500    0.0000 C   0  0
    0.0000    1.5000    0.0000 C   0  0
   -1.2990    0.7500    0.0000 C   0  0
   -1.2990   -0.7500    0.0000 C   0  0
    0.0000   -1.5000    0.0000 C   0  0
    0.3114   -2.9665    0.0000 C   0  0
   -0.5701   -4.1788    0.0000 C   0  0
    0.0400   -5.5491    0.0000 C   0  0
    1.5318   -5.7059    0.0000 N   0  0
    2.4135   -4.4923    0.0000 C   0  0
    3.9058   -4.6517    0.0000 C   0  0
    4.5149   -6.0234    0.0000 N   0  0
    6.0072   -6.1827    0.0000 C   0  0
    6.6163   -7.5544    0.0000 C   0  0
    8.1086   -7.7137    0.0000 C   0  0
    8.7177   -9.0854    0.0000 N   0  0
   10.2100   -9.2448    0.0000 C   0  0
   10.8187  -10.6157    0.0000 C   0  0
    7.8364  -10.3003    0.0000 C   0  0
    8.4466  -11.6705    0.0000 C   0  0
    1.8032   -3.1233    0.0000 C   0  0
  1  2  1  0
  2  3  1  0
  3  4  1  0
  4  5  1  0
  5  6  1  0
  6  7  2  0
  7  8  1  0
  8  9  2  0
  9 10  1  0
 10 11  2  0
 11  6  1  0
 11 12  1  0
 12 13  2  0
 13 14  1  0
 14 15  2  0
 15 16  1  0
 16 17  1  0
 17 18  1  0
 18 19  1  0
 19 20  1  0
 20 21  1  0
 21 22  1  0
 22 23  1  0
 23 24  1  0
 22 25  1  0
 25 26  1  0
 16 27  2  0
 27 12  1  0
 27  5  1  0
M  END
> <assay_chembl_id>
CHEMBL1832093

> <assay_description>
Cytotoxicity against human 22Rv1 cells by MTT assay

> <document_journal>
Eur J Med Chem

> <molecule_chembl_id>
CHEMBL1830998

> <standard_value>
40300

> <IC50_uM>
40.3

> <Activity>
No

> <RemovedSalts>
HCl

> <Canonical_Smiles>
CCCCn1c2ccccc2c2ccnc(CNCCCN(CC)CC)c21.Cl

$$$$

  SciTegic03142313312D

 27 29  0  0  0  0            999 V2000
   11.6982   -0.7323    0.0000 C   0  0
   10.4003   -1.4841    0.0000 C   0  0
    9.0990   -0.7364    0.0000 N   0  0
    9.0933    0.7644    0.0000 C   0  0
    7.7919    1.5103    0.0000 C   0  0
    7.8003   -1.4887    0.0000 C   0  0
    6.4990   -0.7409    0.0000 C   0  0
    5.2003   -1.4932    0.0000 C   0  0
    3.8990   -0.7455    0.0000 N   0  0
    2.6003   -1.4977    0.0000 C   0  0
    1.2990   -0.7500    0.0000 C   0  0
    1.2990    0.7500    0.0000 N   0  0
    0.0000    1.5000    0.0000 C   0  0
   -1.2990    0.7500    0.0000 C   0  0
   -1.2990   -0.7500    0.0000 C   0  0
   -2.4133   -1.7530    0.0000 C   0  0
   -3.9040   -1.5957    0.0000 C   0  0
   -4.7856   -2.8092    0.0000 C   0  0
   -4.1755   -4.1795    0.0000 C   0  0
   -2.6837   -4.3363    0.0000 C   0  0
   -1.8032   -3.1233    0.0000 C   0  0
   -0.3114   -2.9665    0.0000 N   0  0
    0.6936   -4.0776    0.0000 C   0  0
    2.1611   -3.7632    0.0000 C   0  0
    3.1674   -4.8756    0.0000 C   0  0
    2.6219   -2.3357    0.0000 C   0  0
    0.0000   -1.5000    0.0000 C   0  0
  1  2  1  0
  2  3  1  0
  3  4  1  0
  4  5  1  0
  3  6  1  0
  6  7  1  0
  7  8  1  0
  8  9  1  0
  9 10  1  0
 10 11  1  0
 11 12  2  0
 12 13  1  0
 13 14  2  0
 14 15  1  0
 15 16  1  0
 16 17  2  0
 17 18  1  0
 18 19  2  0
 19 20  1  0
 20 21  2  0
 21 16  1  0
 21 22  1  0
 22 23  1  0
 23 24  1  0
 24 25  1  0
 24 26  1  0
 22 27  1  0
 27 11  1  0
 27 15  2  0
M  END
> <assay_chembl_id>
CHEMBL1832093

> <assay_description>
Cytotoxicity against human 22Rv1 cells by MTT assay

> <document_journal>
Eur J Med Chem

> <molecule_chembl_id>
CHEMBL1831002

> <standard_value>
23000

> <IC50_uM>
23

> <Activity>
No

> <RemovedSalts>
HCl

> <Canonical_Smiles>
CCN(CC)CCCNCc1nccc2c3ccccc3n(CC(C)C)c12.Cl

$$$$

  SciTegic03142313312D

 29 32  0  0  0  0            999 V2000
   10.3996   -1.4837    0.0000 C   0  0
    9.0990   -0.7364    0.0000 C   0  0
    7.8003   -1.4887    0.0000 N   0  0
    7.7998   -2.9895    0.0000 C   0  0
    6.5010   -3.7399    0.0000 C   0  0
    6.4990   -0.7409    0.0000 C   0  0
    5.2003   -1.4932    0.0000 C   0  0
    3.8990   -0.7455    0.0000 N   0  0
    2.6003   -1.4977    0.0000 C   0  0
    1.2990   -0.7500    0.0000 C   0  0
    1.2990    0.7500    0.0000 N   0  0
    0.0000    1.5000    0.0000 C   0  0
   -1.2990    0.7500    0.0000 C   0  0
   -1.2990   -0.7500    0.0000 C   0  0
   -2.4133   -1.7530    0.0000 C   0  0
   -3.9040   -1.5957    0.0000 C   0  0
   -4.7856   -2.8092    0.0000 C   0  0
   -4.1755   -4.1795    0.0000 C   0  0
   -2.6837   -4.3363    0.0000 C   0  0
   -1.8032   -3.1233    0.0000 C   0  0
   -0.3114   -2.9665    0.0000 N   0  0
    0.6936   -4.0776    0.0000 C   0  0
    2.1611   -3.7632    0.0000 C   0  0
    3.1690   -4.8741    0.0000 C   0  0
    4.6351   -4.5569    0.0000 C   0  0
    5.0934   -3.1286    0.0000 C   0  0
    4.0856   -2.0176    0.0000 C   0  0
    2.6195   -2.3348    0.0000 C   0  0
    0.0000   -1.5000    0.0000 C   0  0
  1  2  1  0
  2  3  1  0
  3  4  1  0
  4  5  1  0
  3  6  1  0
  6  7  1  0
  7  8  1  0
  8  9  1  0
  9 10  1  0
 10 11  2  0
 11 12  1  0
 12 13  2  0
 13 14  1  0
 14 15  1  0
 15 16  2  0
 16 17  1  0
 17 18  2  0
 18 19  1  0
 19 20  2  0
 20 15  1  0
 20 21  1  0
 21 22  1  0
 22 23  1  0
 23 24  2  0
 24 25  1  0
 25 26  2  0
 26 27  1  0
 27 28  2  0
 28 23  1  0
 21 29  1  0
 29 10  1  0
 29 14  2  0
M  END
> <assay_chembl_id>
CHEMBL1832093

> <assay_description>
Cytotoxicity against human 22Rv1 cells by MTT assay

> <document_journal>
Eur J Med Chem

> <molecule_chembl_id>
CHEMBL1831004

> <standard_value>
73200

> <IC50_uM>
73.2

> <Activity>
No

> <RemovedSalts>
HCl

> <Canonical_Smiles>
CCN(CC)CCNCc1nccc2c3ccccc3n(Cc3ccccc3)c12.Cl

$$$$

  SciTegic03142313312D

 28 31  0  0  0  0            999 V2000
   10.3996   -1.4837    0.0000 C   0  0
    9.0990   -0.7364    0.0000 N   0  0
    9.0964    0.7636    0.0000 C   0  0
    7.8003   -1.4887    0.0000 C   0  0
    6.4990   -0.7409    0.0000 C   0  0
    5.2003   -1.4932    0.0000 C   0  0
    3.8990   -0.7455    0.0000 N   0  0
    2.6003   -1.4977    0.0000 C   0  0
    1.2990   -0.7500    0.0000 C   0  0
    1.2990    0.7500    0.0000 N   0  0
    0.0000    1.5000    0.0000 C   0  0
   -1.2990    0.7500    0.0000 C   0  0
   -1.2990   -0.7500    0.0000 C   0  0
   -2.4133   -1.7530    0.0000 C   0  0
   -3.9040   -1.5957    0.0000 C   0  0
   -4.7856   -2.8092    0.0000 C   0  0
   -4.1755   -4.1795    0.0000 C   0  0
   -2.6837   -4.3363    0.0000 C   0  0
   -1.8032   -3.1233    0.0000 C   0  0
   -0.3114   -2.9665    0.0000 N   0  0
    0.6936   -4.0776    0.0000 C   0  0
    2.1611   -3.7632    0.0000 C   0  0
    3.1690   -4.8741    0.0000 C   0  0
    4.6351   -4.5569    0.0000 C   0  0
    5.0934   -3.1286    0.0000 C   0  0
    4.0856   -2.0176    0.0000 C   0  0
    2.6195   -2.3348    0.0000 C   0  0
    0.0000   -1.5000    0.0000 C   0  0
  1  2  1  0
  2  3  1  0
  2  4  1  0
  4  5  1  0
  5  6  1  0
  6  7  1  0
  7  8  1  0
  8  9  1  0
  9 10  2  0
 10 11  1  0
 11 12  2  0
 12 13  1  0
 13 14  1  0
 14 15  2  0
 15 16  1  0
 16 17  2  0
 17 18  1  0
 18 19  2  0
 19 14  1  0
 19 20  1  0
 20 21  1  0
 21 22  1  0
 22 23  2  0
 23 24  1  0
 24 25  2  0
 25 26  1  0
 26 27  2  0
 27 22  1  0
 20 28  1  0
 28  9  1  0
 28 13  2  0
M  END
> <assay_chembl_id>
CHEMBL1832093

> <assay_description>
Cytotoxicity against human 22Rv1 cells by MTT assay

> <document_journal>
Eur J Med Chem

> <molecule_chembl_id>
CHEMBL1831005

> <standard_value>
24500

> <IC50_uM>
24.5

> <Activity>
No

> <RemovedSalts>
HCl

> <Canonical_Smiles>
CN(C)CCCNCc1nccc2c3ccccc3n(Cc3ccccc3)c12.Cl

$$$$

  SciTegic03142313312D

 30 33  0  0  0  0            999 V2000
   11.6982   -0.7323    0.0000 C   0  0
   10.4003   -1.4841    0.0000 C   0  0
    9.0990   -0.7364    0.0000 N   0  0
    9.0933    0.7644    0.0000 C   0  0
    7.7919    1.5103    0.0000 C   0  0
    7.8003   -1.4887    0.0000 C   0  0
    6.4990   -0.7409    0.0000 C   0  0
    5.2003   -1.4932    0.0000 C   0  0
    3.8990   -0.7455    0.0000 N   0  0
    2.6003   -1.4977    0.0000 C   0  0
    1.2990   -0.7500    0.0000 C   0  0
    1.2990    0.7500    0.0000 N   0  0
    0.0000    1.5000    0.0000 C   0  0
   -1.2990    0.7500    0.0000 C   0  0
   -1.2990   -0.7500    0.0000 C   0  0
   -2.4133   -1.7530    0.0000 C   0  0
   -3.9040   -1.5957    0.0000 C   0  0
   -4.7856   -2.8092    0.0000 C   0  0
   -4.1755   -4.1795    0.0000 C   0  0
   -2.6837   -4.3363    0.0000 C   0  0
   -1.8032   -3.1233    0.0000 C   0  0
   -0.3114   -2.9665    0.0000 N   0  0
    0.6936   -4.0776    0.0000 C   0  0
    2.1611   -3.7632    0.0000 C   0  0
    3.1690   -4.8741    0.0000 C   0  0
    4.6351   -4.5569    0.0000 C   0  0
    5.0934   -3.1286    0.0000 C   0  0
    4.0856   -2.0176    0.0000 C   0  0
    2.6195   -2.3348    0.0000 C   0  0
    0.0000   -1.5000    0.0000 C   0  0
  1  2  1  0
  2  3  1  0
  3  4  1  0
  4  5  1  0
  3  6  1  0
  6  7  1  0
  7  8  1  0
  8  9  1  0
  9 10  1  0
 10 11  1  0
 11 12  2  0
 12 13  1  0
 13 14  2  0
 14 15  1  0
 15 16  1  0
 16 17  2  0
 17 18  1  0
 18 19  2  0
 19 20  1  0
 20 21  2  0
 21 16  1  0
 21 22  1  0
 22 23  1  0
 23 24  1  0
 24 25  2  0
 25 26  1  0
 26 27  2  0
 27 28  1  0
 28 29  2  0
 29 24  1  0
 22 30  1  0
 30 11  1  0
 30 15  2  0
M  END
> <assay_chembl_id>
CHEMBL1832093

> <assay_description>
Cytotoxicity against human 22Rv1 cells by MTT assay

> <document_journal>
Eur J Med Chem

> <molecule_chembl_id>
CHEMBL1831006

> <standard_value>
34300

> <IC50_uM>
34.3

> <Activity>
No

> <RemovedSalts>
HCl

> <Canonical_Smiles>
CCN(CC)CCCNCc1nccc2c3ccccc3n(Cc3ccccc3)c12.Cl

$$$$

  SciTegic03142313312D

 30 33  0  0  0  0            999 V2000
   10.3996   -1.4837    0.0000 C   0  0
    9.0990   -0.7364    0.0000 C   0  0
    7.8003   -1.4887    0.0000 N   0  0
    7.7998   -2.9895    0.0000 C   0  0
    6.5010   -3.7399    0.0000 C   0  0
    6.4990   -0.7409    0.0000 C   0  0
    5.2003   -1.4932    0.0000 C   0  0
    3.8990   -0.7455    0.0000 N   0  0
    2.6003   -1.4977    0.0000 C   0  0
    1.2990   -0.7500    0.0000 C   0  0
    1.2990    0.7500    0.0000 N   0  0
    0.0000    1.5000    0.0000 C   0  0
   -1.2990    0.7500    0.0000 C   0  0
   -1.2990   -0.7500    0.0000 C   0  0
   -2.4133   -1.7530    0.0000 C   0  0
   -3.9040   -1.5957    0.0000 C   0  0
   -4.7856   -2.8092    0.0000 C   0  0
   -4.1755   -4.1795    0.0000 C   0  0
   -2.6837   -4.3363    0.0000 C   0  0
   -1.8032   -3.1233    0.0000 C   0  0
   -0.3114   -2.9665    0.0000 N   0  0
    0.6936   -4.0776    0.0000 C   0  0
    2.1611   -3.7632    0.0000 C   0  0
    3.1690   -4.8741    0.0000 C   0  0
    4.6351   -4.5569    0.0000 C   0  0
    5.0934   -3.1286    0.0000 C   0  0
    6.5594   -2.8113    0.0000 F   0  0
    4.0856   -2.0176    0.0000 C   0  0
    2.6195   -2.3348    0.0000 C   0  0
    0.0000   -1.5000    0.0000 C   0  0
  1  2  1  0
  2  3  1  0
  3  4  1  0
  4  5  1  0
  3  6  1  0
  6  7  1  0
  7  8  1  0
  8  9  1  0
  9 10  1  0
 10 11  2  0
 11 12  1  0
 12 13  2  0
 13 14  1  0
 14 15  1  0
 15 16  2  0
 16 17  1  0
 17 18  2  0
 18 19  1  0
 19 20  2  0
 20 15  1  0
 20 21  1  0
 21 22  1  0
 22 23  1  0
 23 24  2  0
 24 25  1  0
 25 26  2  0
 26 27  1  0
 26 28  1  0
 28 29  2  0
 29 23  1  0
 21 30  1  0
 30 10  1  0
 30 14  2  0
M  END
> <assay_chembl_id>
CHEMBL1832093

> <assay_description>
Cytotoxicity against human 22Rv1 cells by MTT assay

> <document_journal>
Eur J Med Chem

> <molecule_chembl_id>
CHEMBL1831008

> <standard_value>
65900

> <IC50_uM>
65.9

> <Activity>
No

> <RemovedSalts>
HCl

> <Canonical_Smiles>
CCN(CC)CCNCc1nccc2c3ccccc3n(Cc3ccc(F)cc3)c12.Cl

$$$$

  SciTegic03142313312D

 29 32  0  0  0  0            999 V2000
   10.3996   -1.4837    0.0000 C   0  0
    9.0990   -0.7364    0.0000 N   0  0
    9.0964    0.7636    0.0000 C   0  0
    7.8003   -1.4887    0.0000 C   0  0
    6.4990   -0.7409    0.0000 C   0  0
    5.2003   -1.4932    0.0000 C   0  0
    3.8990   -0.7455    0.0000 N   0  0
    2.6003   -1.4977    0.0000 C   0  0
    1.2990   -0.7500    0.0000 C   0  0
    1.2990    0.7500    0.0000 N   0  0
    0.0000    1.5000    0.0000 C   0  0
   -1.2990    0.7500    0.0000 C   0  0
   -1.2990   -0.7500    0.0000 C   0  0
   -2.4133   -1.7530    0.0000 C   0  0
   -3.9040   -1.5957    0.0000 C   0  0
   -4.7856   -2.8092    0.0000 C   0  0
   -4.1755   -4.1795    0.0000 C   0  0
   -2.6837   -4.3363    0.0000 C   0  0
   -1.8032   -3.1233    0.0000 C   0  0
   -0.3114   -2.9665    0.0000 N   0  0
    0.6936   -4.0776    0.0000 C   0  0
    2.1611   -3.7632    0.0000 C   0  0
    3.1690   -4.8741    0.0000 C   0  0
    4.6351   -4.5569    0.0000 C   0  0
    5.0934   -3.1286    0.0000 C   0  0
    6.5594   -2.8113    0.0000 F   0  0
    4.0856   -2.0176    0.0000 C   0  0
    2.6195   -2.3348    0.0000 C   0  0
    0.0000   -1.5000    0.0000 C   0  0
  1  2  1  0
  2  3  1  0
  2  4  1  0
  4  5  1  0
  5  6  1  0
  6  7  1  0
  7  8  1  0
  8  9  1  0
  9 10  2  0
 10 11  1  0
 11 12  2  0
 12 13  1  0
 13 14  1  0
 14 15  2  0
 15 16  1  0
 16 17  2  0
 17 18  1  0
 18 19  2  0
 19 14  1  0
 19 20  1  0
 20 21  1  0
 21 22  1  0
 22 23  2  0
 23 24  1  0
 24 25  2  0
 25 26  1  0
 25 27  1  0
 27 28  2  0
 28 22  1  0
 20 29  1  0
 29  9  1  0
 29 13  2  0
M  END
> <assay_chembl_id>
CHEMBL1832093

> <assay_description>
Cytotoxicity against human 22Rv1 cells by MTT assay

> <document_journal>
Eur J Med Chem

> <molecule_chembl_id>
CHEMBL1831009

> <standard_value>
29900

> <IC50_uM>
29.9

> <Activity>
No

> <RemovedSalts>
HCl

> <Canonical_Smiles>
CN(C)CCCNCc1nccc2c3ccccc3n(Cc3ccc(F)cc3)c12.Cl

$$$$

  SciTegic03142313312D

 31 34  0  0  0  0            999 V2000
   11.6982   -0.7323    0.0000 C   0  0
   10.4003   -1.4841    0.0000 C   0  0
    9.0990   -0.7364    0.0000 N   0  0
    9.0933    0.7644    0.0000 C   0  0
    7.7919    1.5103    0.0000 C   0  0
    7.8003   -1.4887    0.0000 C   0  0
    6.4990   -0.7409    0.0000 C   0  0
    5.2003   -1.4932    0.0000 C   0  0
    3.8990   -0.7455    0.0000 N   0  0
    2.6003   -1.4977    0.0000 C   0  0
    1.2990   -0.7500    0.0000 C   0  0
    1.2990    0.7500    0.0000 N   0  0
    0.0000    1.5000    0.0000 C   0  0
   -1.2990    0.7500    0.0000 C   0  0
   -1.2990   -0.7500    0.0000 C   0  0
   -2.4133   -1.7530    0.0000 C   0  0
   -3.9040   -1.5957    0.0000 C   0  0
   -4.7856   -2.8092    0.0000 C   0  0
   -4.1755   -4.1795    0.0000 C   0  0
   -2.6837   -4.3363    0.0000 C   0  0
   -1.8032   -3.1233    0.0000 C   0  0
   -0.3114   -2.9665    0.0000 N   0  0
    0.6936   -4.0776    0.0000 C   0  0
    2.1611   -3.7632    0.0000 C   0  0
    3.1690   -4.8741    0.0000 C   0  0
    4.6351   -4.5569    0.0000 C   0  0
    5.0934   -3.1286    0.0000 C   0  0
    6.5594   -2.8113    0.0000 F   0  0
    4.0856   -2.0176    0.0000 C   0  0
    2.6195   -2.3348    0.0000 C   0  0
    0.0000   -1.5000    0.0000 C   0  0
  1  2  1  0
  2  3  1  0
  3  4  1  0
  4  5  1  0
  3  6  1  0
  6  7  1  0
  7  8  1  0
  8  9  1  0
  9 10  1  0
 10 11  1  0
 11 12  2  0
 12 13  1  0
 13 14  2  0
 14 15  1  0
 15 16  1  0
 16 17  2  0
 17 18  1  0
 18 19  2  0
 19 20  1  0
 20 21  2  0
 21 16  1  0
 21 22  1  0
 22 23  1  0
 23 24  1  0
 24 25  2  0
 25 26  1  0
 26 27  2  0
 27 28  1  0
 27 29  1  0
 29 30  2  0
 30 24  1  0
 22 31  1  0
 31 11  1  0
 31 15  2  0
M  END
> <assay_chembl_id>
CHEMBL1832093

> <assay_description>
Cytotoxicity against human 22Rv1 cells by MTT assay

> <document_journal>
Eur J Med Chem

> <molecule_chembl_id>
CHEMBL1831010

> <standard_value>
32900

> <IC50_uM>
32.9

> <Activity>
No

> <RemovedSalts>
HCl

> <Canonical_Smiles>
CCN(CC)CCCNCc1nccc2c3ccccc3n(Cc3ccc(F)cc3)c12.Cl

$$$$

  SciTegic03142313312D

 30 33  0  0  0  0            999 V2000
   10.3996   -1.4837    0.0000 C   0  0
    9.0990   -0.7364    0.0000 C   0  0
    7.8003   -1.4887    0.0000 N   0  0
    7.7998   -2.9895    0.0000 C   0  0
    6.5010   -3.7399    0.0000 C   0  0
    6.4990   -0.7409    0.0000 C   0  0
    5.2003   -1.4932    0.0000 C   0  0
    3.8990   -0.7455    0.0000 N   0  0
    2.6003   -1.4977    0.0000 C   0  0
    1.2990   -0.7500    0.0000 C   0  0
    1.2990    0.7500    0.0000 N   0  0
    0.0000    1.5000    0.0000 C   0  0
   -1.2990    0.7500    0.0000 C   0  0
   -1.2990   -0.7500    0.0000 C   0  0
   -2.4133   -1.7530    0.0000 C   0  0
   -3.9040   -1.5957    0.0000 C   0  0
   -4.7856   -2.8092    0.0000 C   0  0
   -4.1755   -4.1795    0.0000 C   0  0
   -2.6837   -4.3363    0.0000 C   0  0
   -1.8032   -3.1233    0.0000 C   0  0
   -0.3114   -2.9665    0.0000 N   0  0
    0.6936   -4.0776    0.0000 C   0  0
    0.2340   -5.5063    0.0000 C   0  0
    1.2386   -6.6203    0.0000 C   0  0
    0.7764   -8.0472    0.0000 C   0  0
   -0.6906   -8.3604    0.0000 C   0  0
   -1.6952   -7.2466    0.0000 C   0  0
   -3.1622   -7.5597    0.0000 Cl  0  0
   -1.2330   -5.8196    0.0000 C   0  0
    0.0000   -1.5000    0.0000 C   0  0
  1  2  1  0
  2  3  1  0
  3  4  1  0
  4  5  1  0
  3  6  1  0
  6  7  1  0
  7  8  1  0
  8  9  1  0
  9 10  1  0
 10 11  2  0
 11 12  1  0
 12 13  2  0
 13 14  1  0
 14 15  1  0
 15 16  2  0
 16 17  1  0
 17 18  2  0
 18 19  1  0
 19 20  2  0
 20 15  1  0
 20 21  1  0
 21 22  1  0
 22 23  1  0
 23 24  2  0
 24 25  1  0
 25 26  2  0
 26 27  1  0
 27 28  1  0
 27 29  2  0
 29 23  1  0
 21 30  1  0
 30 10  1  0
 30 14  2  0
M  END
> <assay_chembl_id>
CHEMBL1832093

> <assay_description>
Cytotoxicity against human 22Rv1 cells by MTT assay

> <document_journal>
Eur J Med Chem

> <molecule_chembl_id>
CHEMBL1831012

> <standard_value>
28600

> <IC50_uM>
28.6

> <Activity>
No

> <RemovedSalts>
HCl

> <Canonical_Smiles>
CCN(CC)CCNCc1nccc2c3ccccc3n(Cc3cccc(Cl)c3)c12.Cl

$$$$

  SciTegic03142313312D

 31 34  0  0  0  0            999 V2000
   10.3996   -1.4837    0.0000 C   0  0
    9.0990   -0.7364    0.0000 C   0  0
    7.8003   -1.4887    0.0000 N   0  0
    7.7998   -2.9895    0.0000 C   0  0
    6.5010   -3.7399    0.0000 C   0  0
    6.4990   -0.7409    0.0000 C   0  0
    5.2003   -1.4932    0.0000 C   0  0
    3.8990   -0.7455    0.0000 N   0  0
    2.6003   -1.4977    0.0000 C   0  0
    1.2990   -0.7500    0.0000 C   0  0
    1.2990    0.7500    0.0000 N   0  0
    0.0000    1.5000    0.0000 C   0  0
   -1.2990    0.7500    0.0000 C   0  0
   -1.2990   -0.7500    0.0000 C   0  0
   -2.4133   -1.7530    0.0000 C   0  0
   -3.9040   -1.5957    0.0000 C   0  0
   -4.7856   -2.8092    0.0000 C   0  0
   -4.1755   -4.1795    0.0000 C   0  0
   -2.6837   -4.3363    0.0000 C   0  0
   -1.8032   -3.1233    0.0000 C   0  0
   -0.3114   -2.9665    0.0000 N   0  0
    0.6936   -4.0776    0.0000 C   0  0
    0.2340   -5.5063    0.0000 C   0  0
    1.2408   -6.6194    0.0000 C   0  0
    0.7812   -8.0481    0.0000 C   0  0
    1.7858   -9.1620    0.0000 C   0  0
    1.3235  -10.5890    0.0000 C   0  0
   -0.1434  -10.9022    0.0000 C   0  0
   -1.1481   -9.7883    0.0000 C   0  0
   -0.6858   -8.3613    0.0000 C   0  0
    0.0000   -1.5000    0.0000 C   0  0
  1  2  1  0
  2  3  1  0
  3  4  1  0
  4  5  1  0
  3  6  1  0
  6  7  1  0
  7  8  1  0
  8  9  1  0
  9 10  1  0
 10 11  2  0
 11 12  1  0
 12 13  2  0
 13 14  1  0
 14 15  1  0
 15 16  2  0
 16 17  1  0
 17 18  2  0
 18 19  1  0
 19 20  2  0
 20 15  1  0
 20 21  1  0
 21 22  1  0
 22 23  1  0
 23 24  1  0
 24 25  1  0
 25 26  2  0
 26 27  1  0
 27 28  2  0
 28 29  1  0
 29 30  2  0
 30 25  1  0
 21 31  1  0
 31 10  1  0
 31 14  2  0
M  END
> <assay_chembl_id>
CHEMBL1832093

> <assay_description>
Cytotoxicity against human 22Rv1 cells by MTT assay

> <document_journal>
Eur J Med Chem

> <molecule_chembl_id>
CHEMBL1831016

> <standard_value>
21900

> <IC50_uM>
21.9

> <Activity>
No

> <RemovedSalts>
HCl

> <Canonical_Smiles>
CCN(CC)CCNCc1nccc2c3ccccc3n(CCCc3ccccc3)c12.Cl

$$$$

  SciTegic03142313312D

 32 31  0  0  0  0            999 V2000
   33.7976   -0.0317    0.0000 C   0  0
   32.4997    0.7203    0.0000 C   0  0
   31.1983   -0.0272    0.0000 C   0  0
   29.8997    0.7253    0.0000 C   0  0
   28.5983   -0.0223    0.0000 C   0  0
   27.2998    0.7302    0.0000 C   0  0
   25.9984   -0.0173    0.0000 C   0  0
   24.6998    0.7352    0.0000 C   0  0
   23.3984   -0.0124    0.0000 C   0  0
   22.0998    0.7401    0.0000 C   0  0
   20.7984   -0.0074    0.0000 C   0  0
   19.4998    0.7451    0.0000 C   0  0
   18.1984   -0.0025    0.0000 C   0  0
   16.8999    0.7500    0.0000 C   0  0
   16.9013    2.2508    0.0000 N   0  0
   15.6005    2.9994    0.0000 N   0  0
   14.3013    2.2480    0.0000 C   0  0
   14.3030    0.7480    0.0000 O   0  0
   13.0005    2.9965    0.0000 C   0  0
   11.7013    2.2451    0.0000 O   0  0
   10.4012    2.9932    0.0000 C   0  0
   18.2013    3.0008    0.0000 C   0  0
   19.4998    2.2500    0.0000 O   0  0
   18.2027    4.5016    0.0000 C   0  0
   19.5027    5.2516    0.0000 C   0  0
   19.5041    6.7525    0.0000 C   0  0
   20.8041    7.5025    0.0000 C   0  0
   20.8056    9.0033    0.0000 C   0  0
   22.1055    9.7533    0.0000 C   0  0
   22.1070   11.2541    0.0000 C   0  0
   23.4070   12.0041    0.0000 C   0  0
   23.4084   13.5041    0.0000 C   0  0
  1  2  1  0
  2  3  1  0
  3  4  1  0
  4  5  1  0
  5  6  1  0
  6  7  1  0
  7  8  1  0
  8  9  1  0
  9 10  1  0
 10 11  1  0
 11 12  1  0
 12 13  1  0
 13 14  2  0
 14 15  1  0
 15 16  1  0
 16 17  1  0
 17 18  2  0
 17 19  1  0
 19 20  1  0
 20 21  1  0
 15 22  1  0
 22 23  2  0
 22 24  1  0
 24 25  1  0
 25 26  1  0
 26 27  1  0
 27 28  1  0
 28 29  1  0
 29 30  1  0
 30 31  1  0
 31 32  1  0
M  END
> <assay_chembl_id>
CHEMBL1839676

> <assay_description>
Cytotoxicity against human 22Rv1 cells by propidium iodide staining

> <document_journal>
Bioorg Med Chem Lett

> <molecule_chembl_id>
CHEMBL1834207

> <standard_value>
882

> <IC50_uM>
0.882

> <Activity>
Yes

> <Canonical_Smiles>
CCCCCCCCCCCC/C=C\N(NC(=O)COC)C(=O)CCCCCCCCC

$$$$

  SciTegic03142313312D

 29 31  0  0  0  0            999 V2000
    5.1800    4.5099    0.0000 C   0  0
    5.1851    3.0099    0.0000 C   0  0
    5.1903    1.5091    0.0000 C   0  0
    6.4920    0.7636    0.0000 C   0  0
    6.4972   -0.7364    0.0000 C   0  0
    5.2007   -1.4909    0.0000 C   0  0
    3.8990   -0.7455    0.0000 C   0  0
    2.6003   -1.4977    0.0000 N   0  0
    1.2990   -0.7500    0.0000 C   0  0
    1.2990    0.7500    0.0000 N   0  0
    0.0000    1.5000    0.0000 C   0  0
   -1.2990    0.7500    0.0000 N   0  0
   -1.2990   -0.7500    0.0000 C   0  0
   -2.5981   -1.5000    0.0000 C   0  0
   -2.5981   -3.0000    0.0000 C   0  0
   -3.8994   -3.7478    0.0000 O   0  0
   -5.1981   -2.9955    0.0000 C   0  0
   -6.4993   -3.7433    0.0000 C   0  0
   -7.7980   -2.9910    0.0000 O   0  0
   -9.0986   -3.7383    0.0000 C   0  0
   -1.2990   -3.7500    0.0000 C   0  0
   -1.2959   -5.2508    0.0000 O   0  0
    0.0049   -5.9994    0.0000 C   0  0
    0.0080   -7.5002    0.0000 C   0  0
    1.3088   -8.2488    0.0000 O   0  0
    1.3119   -9.7488    0.0000 C   0  0
    0.0000   -3.0000    0.0000 C   0  0
    0.0000   -1.5000    0.0000 C   0  0
    3.8939    0.7546    0.0000 C   0  0
  1  2  3  0
  2  3  1  0
  3  4  2  0
  4  5  1  0
  5  6  2  0
  6  7  1  0
  7  8  1  0
  8  9  1  0
  9 10  2  0
 10 11  1  0
 11 12  2  0
 12 13  1  0
 13 14  2  0
 14 15  1  0
 15 16  1  0
 16 17  1  0
 17 18  1  0
 18 19  1  0
 19 20  1  0
 15 21  2  0
 21 22  1  0
 22 23  1  0
 23 24  1  0
 24 25  1  0
 25 26  1  0
 21 27  1  0
 27 28  2  0
 28  9  1  0
 28 13  1  0
  7 29  2  0
 29  3  1  0
M  END
> <assay_chembl_id>
CHEMBL1932409

> <assay_description>
Cytotoxicity against human 22Rv1 cells after 4 days by propidium iodide staining-based fluorometric analysis

> <document_journal>
Bioorg Med Chem

> <molecule_chembl_id>
CHEMBL553

> <standard_value>
100000

> <IC50_uM>
100

> <Activity>
No

> <Canonical_Smiles>
C#Cc1cccc(Nc2ncnc3cc(OCCOC)c(OCCOC)cc23)c1

$$$$

  SciTegic03142313312D

 25 26  0  0  1  0            999 V2000
    3.8983   -0.7459    0.0000 C   0  0
    2.6003   -1.4977    0.0000 O   0  0
    1.2990   -0.7500    0.0000 C   0  0
    1.2990    0.7500    0.0000 C   0  0
    0.0000    1.5000    0.0000 C   0  0
   -1.2990    0.7500    0.0000 C   0  0
   -2.6003    1.4977    0.0000 C   0  0
   -2.6030    2.9977    0.0000 O   0  0
   -3.8990    0.7455    0.0000 N   0  0
   -5.2003    1.4932    0.0000 C   0  0
   -6.4990    0.7409    0.0000 C   0  0  2  0  0  0
   -6.4964   -0.7591    0.0000 O   0  0
   -7.8003    1.4887    0.0000 C   0  0
   -9.0983    0.7368    0.0000 O   0  0
   -1.2990   -0.7500    0.0000 C   0  0
    0.0000   -1.5000    0.0000 C   0  0
   -0.0031   -3.0008    0.0000 C   0  0
   -1.3039   -3.7494    0.0000 C   0  0
   -1.3070   -5.2502    0.0000 C   0  0
   -2.6060   -6.0003    0.0000 C   0  0
   -2.6060   -7.5003    0.0000 C   0  0
   -1.3070   -8.2503    0.0000 C   0  0
   -1.3071   -9.7503    0.0000 Cl  0  0
   -0.0080   -7.5003    0.0000 C   0  0
   -0.0079   -6.0003    0.0000 C   0  0
  1  2  1  0
  2  3  1  0
  3  4  2  0
  4  5  1  0
  5  6  2  0
  6  7  1  0
  7  8  2  0
  7  9  1  0
  9 10  1  0
 10 11  1  0
 11 12  1  6
 11 13  1  0
 13 14  1  0
  6 15  1  0
 15 16  2  0
 16  3  1  0
 16 17  1  0
 17 18  2  0
 18 19  1  0
 19 20  2  0
 20 21  1  0
 21 22  2  0
 22 23  1  0
 22 24  1  0
 24 25  2  0
 25 19  1  0
M  END
> <assay_chembl_id>
CHEMBL1952611

> <assay_description>
Antiproliferative activity against human 22Rv1 cells assessed as cell growth inhibition

> <document_journal>
Bioorg Med Chem

> <molecule_chembl_id>
CHEMBL1949789

> <standard_value>
21000

> <IC50_uM>
21

> <Activity>
No

> <Canonical_Smiles>
COc1ccc(C(=O)NC[C@H](O)CO)cc1/C=C/c1ccc(Cl)cc1

$$$$

  SciTegic03142313312D

 20 22  0  0  0  0            999 V2000
    2.5981   -1.5000    0.0000 O   0  0
    1.2990   -0.7500    0.0000 C   0  0
    1.2990    0.7500    0.0000 C   0  0
    2.5981    1.5000    0.0000 O   0  0
    0.0000    1.5000    0.0000 C   0  0
    0.0000    3.0008    0.0000 C   0  0
    1.2978    3.7529    0.0000 C   0  0
    1.2954    5.2529    0.0000 C   0  0
   -0.0048    6.0009    0.0000 C   0  0
   -0.0072    7.5009    0.0000 O   0  0
   -1.3026    5.2488    0.0000 C   0  0
   -1.3002    3.7488    0.0000 C   0  0
   -1.2990    0.7500    0.0000 O   0  0
   -1.2990   -0.7500    0.0000 C   0  0
   -2.5981   -1.5000    0.0000 C   0  0
   -2.5981   -3.0000    0.0000 C   0  0
   -3.8971   -3.7500    0.0000 O   0  0
   -1.2990   -3.7500    0.0000 C   0  0
    0.0000   -3.0000    0.0000 C   0  0
    0.0000   -1.5000    0.0000 C   0  0
  1  2  2  0
  2  3  1  0
  3  4  1  0
  3  5  2  0
  5  6  1  0
  6  7  2  0
  7  8  1  0
  8  9  2  0
  9 10  1  0
  9 11  1  0
 11 12  2  0
 12  6  1  0
  5 13  1  0
 13 14  1  0
 14 15  2  0
 15 16  1  0
 16 17  1  0
 16 18  2  0
 18 19  1  0
 19 20  2  0
 20  2  1  0
 20 14  1  0
M  END
> <assay_chembl_id>
CHEMBL2050410

> <assay_description>
Antiproliferative activity against human 22Rv1 cells incubated up to 144 hrs by Coulter particle count and size analyzer

> <document_journal>
Eur J Med Chem

> <molecule_chembl_id>
CHEMBL242383

> <standard_value>
30200

> <IC50_uM>
30.2

> <Activity>
No

> <Canonical_Smiles>
O=c1c(O)c(-c2ccc(O)cc2)oc2cc(O)ccc12

$$$$

  SciTegic03142313312D

 21 23  0  0  0  0            999 V2000
    2.5981   -1.5000    0.0000 O   0  0
    1.2990   -0.7500    0.0000 C   0  0
    1.2990    0.7500    0.0000 C   0  0
    2.5981    1.5000    0.0000 O   0  0
    0.0000    1.5000    0.0000 C   0  0
    0.0000    3.0008    0.0000 C   0  0
    1.2978    3.7529    0.0000 C   0  0
    1.2954    5.2529    0.0000 C   0  0
   -0.0048    6.0009    0.0000 C   0  0
   -0.0072    7.5009    0.0000 O   0  0
   -1.3026    5.2488    0.0000 C   0  0
   -2.6029    5.9967    0.0000 O   0  0
   -1.3002    3.7488    0.0000 C   0  0
   -1.2990    0.7500    0.0000 O   0  0
   -1.2990   -0.7500    0.0000 C   0  0
   -2.5981   -1.5000    0.0000 C   0  0
   -2.5981   -3.0000    0.0000 C   0  0
   -3.8971   -3.7500    0.0000 O   0  0
   -1.2990   -3.7500    0.0000 C   0  0
    0.0000   -3.0000    0.0000 C   0  0
    0.0000   -1.5000    0.0000 C   0  0
  1  2  2  0
  2  3  1  0
  3  4  1  0
  3  5  2  0
  5  6  1  0
  6  7  2  0
  7  8  1  0
  8  9  2  0
  9 10  1  0
  9 11  1  0
 11 12  1  0
 11 13  2  0
 13  6  1  0
  5 14  1  0
 14 15  1  0
 15 16  2  0
 16 17  1  0
 17 18  1  0
 17 19  2  0
 19 20  1  0
 20 21  2  0
 21  2  1  0
 21 15  1  0
M  END
> <assay_chembl_id>
CHEMBL2050410

> <assay_description>
Antiproliferative activity against human 22Rv1 cells incubated up to 144 hrs by Coulter particle count and size analyzer

> <document_journal>
Eur J Med Chem

> <molecule_chembl_id>
CHEMBL31574

> <standard_value>
25900

> <IC50_uM>
25.9

> <Activity>
No

> <Canonical_Smiles>
O=c1c(O)c(-c2ccc(O)c(O)c2)oc2cc(O)ccc12

$$$$

  SciTegic03142313312D

 21 23  0  0  0  0            999 V2000
    2.5981   -1.5000    0.0000 O   0  0
    1.2990   -0.7500    0.0000 C   0  0
    1.2990    0.7500    0.0000 C   0  0
    2.5981    1.5000    0.0000 O   0  0
    0.0000    1.5000    0.0000 C   0  0
    0.0000    3.0008    0.0000 C   0  0
    1.2978    3.7529    0.0000 C   0  0
    1.2954    5.2529    0.0000 C   0  0
   -0.0048    6.0009    0.0000 C   0  0
   -0.0072    7.5009    0.0000 O   0  0
   -1.3026    5.2488    0.0000 C   0  0
   -1.3002    3.7488    0.0000 C   0  0
   -1.2990    0.7500    0.0000 O   0  0
   -1.2990   -0.7500    0.0000 C   0  0
   -2.5981   -1.5000    0.0000 C   0  0
   -2.5981   -3.0000    0.0000 C   0  0
   -3.8971   -3.7500    0.0000 F   0  0
   -1.2990   -3.7500    0.0000 C   0  0
    0.0000   -3.0000    0.0000 C   0  0
    1.2991   -3.7500    0.0000 F   0  0
    0.0000   -1.5000    0.0000 C   0  0
  1  2  2  0
  2  3  1  0
  3  4  1  0
  3  5  2  0
  5  6  1  0
  6  7  2  0
  7  8  1  0
  8  9  2  0
  9 10  1  0
  9 11  1  0
 11 12  2  0
 12  6  1  0
  5 13  1  0
 13 14  1  0
 14 15  2  0
 15 16  1  0
 16 17  1  0
 16 18  2  0
 18 19  1  0
 19 20  1  0
 19 21  2  0
 21  2  1  0
 21 14  1  0
M  END
> <assay_chembl_id>
CHEMBL2050410

> <assay_description>
Antiproliferative activity against human 22Rv1 cells incubated up to 144 hrs by Coulter particle count and size analyzer

> <document_journal>
Eur J Med Chem

> <molecule_chembl_id>
CHEMBL2047500

> <standard_value>
28700

> <IC50_uM>
28.7

> <Activity>
No

> <Canonical_Smiles>
O=c1c(O)c(-c2ccc(O)cc2)oc2cc(F)cc(F)c12

$$$$

  SciTegic03142313312D

 20 22  0  0  0  0            999 V2000
    6.4870   -5.2597    0.0000 C   0  0
    6.4915   -3.7597    0.0000 O   0  0
    5.1945   -3.0045    0.0000 C   0  0
    5.1969   -1.5045    0.0000 C   0  0
    3.8991   -0.7525    0.0000 C   0  0
    2.5987   -1.5004    0.0000 C   0  0
    1.2990   -0.7500    0.0000 C   0  0
    1.2990    0.7500    0.0000 O   0  0
    0.0000    1.5000    0.0000 C   0  0
    0.0000    3.0000    0.0000 C   0  0
   -1.2991    3.7500    0.0000 C   0  0
   -2.5981    3.0000    0.0000 C   0  0
   -2.5981    1.5000    0.0000 C   0  0
   -1.2990    0.7500    0.0000 C   0  0
   -1.2990   -0.7500    0.0000 C   0  0
   -2.5981   -1.5000    0.0000 O   0  0
    0.0000   -1.5000    0.0000 C   0  0
    0.0000   -3.0000    0.0000 O   0  0
    2.5965   -3.0004    0.0000 C   0  0
    3.8943   -3.7525    0.0000 C   0  0
  1  2  1  0
  2  3  1  0
  3  4  2  0
  4  5  1  0
  5  6  2  0
  6  7  1  0
  7  8  1  0
  8  9  1  0
  9 10  2  0
 10 11  1  0
 11 12  2  0
 12 13  1  0
 13 14  2  0
 14  9  1  0
 14 15  1  0
 15 16  2  0
 15 17  1  0
 17  7  2  0
 17 18  1  0
  6 19  1  0
 19 20  2  0
 20  3  1  0
M  END
> <assay_chembl_id>
CHEMBL2050410

> <assay_description>
Antiproliferative activity against human 22Rv1 cells incubated up to 144 hrs by Coulter particle count and size analyzer

> <document_journal>
Eur J Med Chem

> <molecule_chembl_id>
CHEMBL406834

> <standard_value>
30500

> <IC50_uM>
30.5

> <Activity>
No

> <Canonical_Smiles>
COc1ccc(-c2oc3ccccc3c(=O)c2O)cc1

$$$$

  SciTegic03142313312D

 28 31  0  0  0  0            999 V2000
    7.3532   -3.3675    0.0000 C   0  0
    6.3509   -2.2515    0.0000 C   0  0
    4.8823   -2.5608    0.0000 C   0  0
    3.8794   -1.4442    0.0000 C   0  0
    2.4133   -1.7530    0.0000 N   0  0
    1.2990   -0.7500    0.0000 C   0  0
    1.2990    0.7500    0.0000 C   0  0
    0.0000    1.5000    0.0000 C   0  0
   -0.0031    3.0008    0.0000 O   0  0
   -1.3039    3.7494    0.0000 C   0  0
   -1.3070    5.2502    0.0000 C   0  0
   -2.6078    5.9988    0.0000 C   0  0
   -2.6109    7.4996    0.0000 C   0  0
   -3.9100    8.2496    0.0000 C   0  0
   -3.9100    9.7496    0.0000 C   0  0
   -2.6110   10.4997    0.0000 C   0  0
   -1.3119    9.7497    0.0000 C   0  0
   -1.3119    8.2497    0.0000 C   0  0
   -1.2990    0.7500    0.0000 C   0  0
   -1.2990   -0.7500    0.0000 C   0  0
    0.0000   -1.5000    0.0000 C   0  0
    0.3114   -2.9665    0.0000 C   0  0
   -0.5701   -4.1788    0.0000 C   0  0
    0.0400   -5.5491    0.0000 C   0  0
    1.5318   -5.7059    0.0000 N   0  0
    2.4135   -4.4923    0.0000 C   0  0
    3.9053   -4.6488    0.0000 C   0  0
    1.8032   -3.1233    0.0000 C   0  0
  1  2  1  0
  2  3  1  0
  3  4  1  0
  4  5  1  0
  5  6  1  0
  6  7  2  0
  7  8  1  0
  8  9  1  0
  9 10  1  0
 10 11  1  0
 11 12  1  0
 12 13  1  0
 13 14  2  0
 14 15  1  0
 15 16  2  0
 16 17  1  0
 17 18  2  0
 18 13  1  0
  8 19  2  0
 19 20  1  0
 20 21  2  0
 21  6  1  0
 21 22  1  0
 22 23  2  0
 23 24  1  0
 24 25  2  0
 25 26  1  0
 26 27  1  0
 26 28  2  0
 28 22  1  0
 28  5  1  0
M  END
> <assay_chembl_id>
CHEMBL2321023

> <assay_description>
Cytotoxicity against human 22Rv1 cells by MTT assay

> <document_journal>
Eur J Med Chem

> <molecule_chembl_id>
CHEMBL2314672

> <standard_value>
40500

> <IC50_uM>
40.5

> <Activity>
No

> <Canonical_Smiles>
CCCCn1c2cc(OCCCc3ccccc3)ccc2c2ccnc(C)c21

$$$$

  SciTegic03142313312D

 39 43  0  0  1  0            999 V2000
    3.8983   -0.7459    0.0000 C   0  0
    2.6003   -1.4977    0.0000 O   0  0
    1.2990   -0.7500    0.0000 C   0  0
    1.2990    0.7500    0.0000 C   0  0
    0.0000    1.5000    0.0000 C   0  0
   -1.2990    0.7500    0.0000 C   0  0
   -1.2990   -0.7500    0.0000 C   0  0
    0.0000   -1.5000    0.0000 C   0  0
    0.0000   -3.0000    0.0000 C   0  0
    1.2990   -3.7500    0.0000 O   0  0
   -1.2990   -3.7500    0.0000 C   0  0
   -1.2990   -5.2500    0.0000 C   0  0
    0.0000   -6.0000    0.0000 O   0  0
   -2.5981   -6.0000    0.0000 C   0  0
   -3.8971   -5.2500    0.0000 C   0  0
   -3.8971   -3.7500    0.0000 C   0  0
   -5.1961   -3.0000    0.0000 O   0  0
   -2.5981   -3.0000    0.0000 C   0  0
   -2.5981   -1.5000    0.0000 C   0  0
   -3.8971   -0.7500    0.0000 O   0  0
   -5.1961   -6.0000    0.0000 C   0  0
   -5.1961   -7.5000    0.0000 C   0  0  1  0  0  0
   -6.4764   -6.7184    0.0000 O   0  0
   -5.1597   -8.9800    0.0000 C   0  0
   -6.4588   -9.7299    0.0000 O   0  0
   -3.8602   -9.7310    0.0000 C   0  0
   -3.8599  -11.2310    0.0000 O   0  0
   -3.8971   -8.2500    0.0000 C   0  0
   -2.5981   -7.5000    0.0000 C   0  0  2  0  0  0
   -1.2998   -8.2531    0.0000 O   0  0
   -1.3020   -9.7539    0.0000 C   0  0  1  0  0  0
   -0.0056  -10.5085    0.0000 C   0  0
   -0.0108  -12.0085    0.0000 C   0  0  2  0  0  0
    1.2857  -12.7630    0.0000 N   0  0
   -1.3124  -12.7540    0.0000 C   0  0  2  0  0  0
   -1.3176  -14.2540    0.0000 O   0  0
   -2.6088  -11.9995    0.0000 C   0  0  2  0  0  0
   -3.9104  -12.7450    0.0000 C   0  0
   -2.6036  -10.4995    0.0000 O   0  0
  1  2  1  0
  2  3  1  0
  3  4  2  0
  4  5  1  0
  5  6  2  0
  6  7  1  0
  7  8  2  0
  8  3  1  0
  8  9  1  0
  9 10  2  0
  9 11  1  0
 11 12  2  0
 12 13  1  0
 12 14  1  0
 14 15  2  0
 15 16  1  0
 16 17  1  0
 16 18  2  0
 18 11  1  0
 18 19  1  0
 19  7  1  0
 19 20  2  0
 15 21  1  0
 21 22  1  0
 22 23  1  1
 22 24  1  0
 24 25  2  0
 24 26  1  0
 26 27  1  0
 22 28  1  0
 28 29  1  0
 29 14  1  0
 29 30  1  1
 31 30  1  1
 31 32  1  0
 32 33  1  0
 33 34  1  6
 33 35  1  0
 35 36  1  6
 35 37  1  0
 37 38  1  6
 37 39  1  0
 39 31  1  0
M  END
> <assay_chembl_id>
CHEMBL2363708

> <assay_description>
SANGER: Inhibition of human 22RV1 cell growth in a cell viability assay.

> <document_journal>
.

> <molecule_chembl_id>
CHEMBL53463

> <standard_value>
21.24

> <IC50_uM>
0.02124

> <Activity>
Yes

> <Canonical_Smiles>
COc1cccc2c1C(=O)c1c(O)c3c(c(O)c1C2=O)C[C@@](O)(C(=O)CO)C[C@@H]3O[C@H]1C[C@H](N)[C@H](O)[C@H](C)O1

$$$$

  SciTegic03142313312D

 18 19  0  0  1  0            999 V2000
    2.5981   -1.5000    0.0000 N   0  0
    1.2990   -0.7500    0.0000 C   0  0
    1.2990    0.7500    0.0000 C   0  0
    0.0000    1.5000    0.0000 C   0  0
   -1.2990    0.7500    0.0000 N   0  0
   -2.5987    1.5004    0.0000 C   0  0  2  0  0  0
   -3.9492    0.8772    0.0000 O   0  0
   -4.9546    1.9903    0.0000 C   0  0  2  0  0  0
   -6.4441    1.8282    0.0000 C   0  0
   -7.0500    0.4561    0.0000 O   0  0
   -4.2067    3.2905    0.0000 C   0  0  1  0  0  0
   -4.8190    4.6599    0.0000 O   0  0
   -2.7390    2.9810    0.0000 C   0  0
   -1.3214    2.4906    0.0000 F   0  0
   -3.0655    4.4450    0.0000 F   0  0
   -1.2990   -0.7500    0.0000 C   0  0
   -2.5981   -1.5000    0.0000 O   0  0
    0.0000   -1.5000    0.0000 N   0  0
  1  2  1  0
  2  3  1  0
  3  4  2  0
  4  5  1  0
  6  5  1  6
  6  7  1  0
  7  8  1  0
  8  9  1  6
  9 10  1  0
  8 11  1  0
 11 12  1  1
 11 13  1  0
 13  6  1  0
 13 14  1  0
 13 15  1  0
  5 16  1  0
 16 17  2  0
 16 18  1  0
 18  2  2  0
M  END
> <assay_chembl_id>
CHEMBL2363708

> <assay_description>
SANGER: Inhibition of human 22RV1 cell growth in a cell viability assay.

> <document_journal>
.

> <molecule_chembl_id>
CHEMBL888

> <standard_value>
96.48

> <IC50_uM>
0.09648

> <Activity>
Yes

> <Canonical_Smiles>
Nc1ccn([C@@H]2O[C@H](CO)[C@@H](O)C2(F)F)c(=O)n1

$$$$

  SciTegic03142313312D

 24 27  0  0  1  0            999 V2000
    1.4851   -1.5024    0.0000 C   0  0
    2.1092   -0.1384    0.0000 O   0  0
    3.6065    0.0000    0.0000 C   0  0  1  0  0  0
    2.7248   -1.2135    0.0000 C   0  0  2  0  0  0
    3.1905   -2.6376    0.0000 C   0  0
    4.6589   -2.9478    0.0000 O   0  0
    5.1253   -4.3743    0.0000 C   0  0
    4.1234   -5.4906    0.0000 N   0  0
    6.5929   -4.6843    0.0000 O   0  0
    1.2990   -0.7500    0.0000 C   0  0
    1.2990    0.7500    0.0000 C   0  0
    0.0000    1.5000    0.0000 C   0  0
    0.0000    3.0000    0.0000 O   0  0
   -1.2990    0.7500    0.0000 C   0  0
   -2.5981    1.5000    0.0000 C   0  0
   -1.2990   -0.7500    0.0000 C   0  0
   -2.5981   -1.5000    0.0000 N   0  0
    0.0000   -1.5000    0.0000 C   0  0
    0.0000   -3.0000    0.0000 O   0  0
    2.7248    1.2135    0.0000 N   0  0
    3.6281    2.3993    0.0000 C   0  0
    5.0501    1.9218    0.0000 C   0  0  2  0  0  0
    6.3350    1.1594    0.0000 N   0  0
    5.0354    0.4219    0.0000 C   0  0  2  0  0  0
  1  2  1  0
  3  2  1  1
  3  4  1  0
  4  5  1  6
  5  6  1  0
  6  7  1  0
  7  8  1  0
  7  9  2  0
  4 10  1  0
 10 11  2  0
 11 12  1  0
 12 13  2  0
 12 14  1  0
 14 15  1  0
 14 16  2  0
 16 17  1  0
 16 18  1  0
 18 10  1  0
 18 19  2  0
 11 20  1  0
 20  3  1  0
 20 21  1  0
 22 21  1  6
 22 23  1  0
 24 23  1  6
 24 22  1  0
 24  3  1  0
M  END
> <assay_chembl_id>
CHEMBL2363708

> <assay_description>
SANGER: Inhibition of human 22RV1 cell growth in a cell viability assay.

> <document_journal>
.

> <molecule_chembl_id>
CHEMBL105

> <standard_value>
144.07

> <IC50_uM>
0.14407

> <Activity>
Yes

> <Canonical_Smiles>
CO[C@@]12[C@H](COC(N)=O)C3=C(C(=O)C(C)=C(N)C3=O)N1C[C@@H]1N[C@@H]12

$$$$

  SciTegic03142313312D

 57 65  0  0  1  0            999 V2000
   -9.8785   -1.2799    0.0000 C   0  0
  -10.6159    0.0263    0.0000 C   0  0
   -9.8539    1.3170    0.0000 C   0  0
   -8.7906    1.7767    0.0000 C   0  0
   -7.6213    2.8080    0.0000 C   0  0  2  0  0  0
   -9.3949    5.3852    0.0000 C   0  0
   -9.0562    3.7760    0.0000 N   0  0  3  0  0  0
   -9.9666    2.2821    0.0000 C   0  0
   -7.2598    3.9925    0.0000 C   0  0
   -6.3969    4.7752    0.0000 C   0  0
   -5.0847    4.7896    0.0000 C   0  0
   -4.4469    5.9968    0.0000 N   0  0
   -5.4807    6.7939    0.0000 C   0  0
   -5.3783    7.9659    0.0000 C   0  0
   -6.4350    8.5643    0.0000 C   0  0
   -7.7902    7.7717    0.0000 C   0  0
   -7.7896    6.6020    0.0000 C   0  0
   -6.6978    6.0821    0.0000 C   0  0
   -4.6571    3.9977    0.0000 C   0  0  1  0  0  0
   -3.4221    4.8504    0.0000 C   0  0
   -2.0670    4.2072    0.0000 O   0  0
   -3.5421    6.3465    0.0000 O   0  0
   -2.3077    7.1987    0.0000 C   0  0
   -4.0318    2.6323    0.0000 C   0  0
   -2.5657    2.5157    0.0000 C   0  0
   -1.9493    1.1329    0.0000 C   0  0
   -2.7823    0.0000    0.0000 C   0  0
   -4.2817    0.1000    0.0000 C   0  0
   -4.8982    1.4328    0.0000 C   0  0
   -6.3927    1.5708    0.0000 O   0  0
   -7.2597    0.3467    0.0000 C   0  0
   -1.9493   -1.2495    0.0000 N   0  0
   -2.4335   -2.6692    0.0000 C   0  0
   -0.5665   -0.7830    0.0000 C   0  0  1  0  0  0
    0.6997   -1.5161    0.0000 C   0  0  1  0  0  0
   -0.6257   -2.2184    0.0000 O   0  0
    1.9918   -2.2373    0.0000 C   0  0
    2.8371   -1.7030    0.0000 O   0  0
    2.0524   -3.7369    0.0000 O   0  0
    3.3802   -4.4347    0.0000 C   0  0
    2.0326   -0.7830    0.0000 C   0  0  2  0  0  0
    3.3301   -1.5369    0.0000 O   0  0
    4.6325   -0.7911    0.0000 C   0  0
    5.4966   -1.2945    0.0000 C   0  0
    4.6388    0.7089    0.0000 O   0  0
    2.0326    0.6831    0.0000 C   0  0  2  0  0  0
    3.3312   -0.0685    0.0000 C   0  0
    4.1981    0.4300    0.0000 C   0  0
    3.2821    1.3995    0.0000 C   0  0
    3.2821    2.8989    0.0000 C   0  0
    1.5328    3.8485    0.0000 C   0  0
    0.4165    2.8656    0.0000 N   0  0  3  0  0  0
   -1.0329    3.0488    0.0000 C   0  0
   -1.6660    1.6994    0.0000 C   0  0
   -0.5665    0.6997    0.0000 C   0  0  2  0  0  0
    0.7331    1.4328    0.0000 C   0  0  2  0  0  0
   -5.4925    3.1494    0.0000 C   0  0
  1  2  1  0
  2  3  1  0
  3  4  2  0
  5  4  1  6
  5  6  1  0
  7  6  1  4
  7  8  1  0
  8  3  1  0
  7  9  1  0
  9 10  1  0
 10 11  2  0
 11 12  1  0
 12 13  1  0
 13 14  2  0
 14 15  1  0
 15 16  2  0
 16 17  1  0
 17 18  2  0
 18 10  1  0
 18 13  1  0
 11 19  1  0
 19 20  1  6
 20 21  2  0
 20 22  1  0
 22 23  1  0
 19 24  1  0
 24 25  2  0
 25 26  1  0
 26 27  2  0
 27 28  1  0
 28 29  2  0
 29 24  1  0
 29 30  1  0
 30 31  1  0
 27 32  1  0
 32 33  1  0
 34 32  1  6
 34 35  1  0
 35 36  1  1
 35 37  1  0
 37 38  2  0
 37 39  1  0
 39 40  1  0
 35 41  1  0
 41 42  1  1
 42 43  1  0
 43 44  1  0
 43 45  2  0
 41 46  1  0
 46 47  1  6
 47 48  1  0
 46 49  1  0
 49 50  2  0
 50 51  1  0
 52 51  1  4
 52 53  1  0
 53 54  1  0
 55 54  1  1
 55 26  1  0
 55 34  1  0
 55 56  1  0
 56 52  1  1
 56 46  1  0
 19 57  1  0
 57  5  1  0
M  END
> <assay_chembl_id>
CHEMBL2363708

> <assay_description>
SANGER: Inhibition of human 22RV1 cell growth in a cell viability assay.

> <document_journal>
.

> <molecule_chembl_id>
CHEMBL553025

> <standard_value>
8.787

> <IC50_uM>
0.008787

> <Activity>
Yes

> <Canonical_Smiles>
CCC1=C[C@@H]2CN(C1)Cc1c([nH]c3ccccc13)[C@@](C(=O)OC)(c1cc3c(cc1OC)N(C)[C@H]1[C@@](O)(C(=O)OC)[C@H](OC(C)=O)[C@]4(CC)C=CCN5CC[C@]31[C@@H]54)C2

$$$$

  SciTegic03142313312D

 26 29  0  0  0  0            999 V2000
    3.8978   -2.2504    0.0000 N   0  0
    2.5988   -1.5004    0.0000 C   0  0
    1.2990   -0.7500    0.0000 C   0  0
    1.2990    0.7500    0.0000 C   0  0
    2.5981    1.5000    0.0000 O   0  0
    0.0000    1.5000    0.0000 C   0  0
   -0.3115    2.9665    0.0000 C   0  0
    0.6928    4.0817    0.0000 C   0  0
    2.1743    3.8809    0.0000 C   0  0
    3.0913    5.0679    0.0000 C   0  0
    2.5218    6.4556    0.0000 C   0  0
    3.4392    7.6433    0.0000 C   0  0
    2.8676    9.0301    0.0000 C   0  0
    3.7827   10.2186    0.0000 C   0  0
    5.2695   10.0204    0.0000 C   0  0
    5.8412    8.6336    0.0000 C   0  0
    4.9261    7.4451    0.0000 C   0  0
    5.4979    6.0583    0.0000 O   0  0
    1.0352    6.6562    0.0000 C   0  0
    0.1182    5.4691    0.0000 C   0  0
   -1.8032    3.1233    0.0000 C   0  0
   -2.4133    1.7530    0.0000 S   0  0
   -1.2990    0.7500    0.0000 C   0  0
   -1.2990   -0.7500    0.0000 N   0  0
    0.0000   -1.5000    0.0000 C   0  0
    0.0000   -3.0000    0.0000 O   0  0
  1  2  3  0
  2  3  1  0
  3  4  2  0
  4  5  1  0
  4  6  1  0
  6  7  1  0
  7  8  1  0
  8  9  2  0
  9 10  1  0
 10 11  2  0
 11 12  1  0
 12 13  2  0
 13 14  1  0
 14 15  2  0
 15 16  1  0
 16 17  2  0
 17 12  1  0
 17 18  1  0
 11 19  1  0
 19 20  2  0
 20  8  1  0
  7 21  2  0
 21 22  1  0
 22 23  1  0
 23  6  2  0
 23 24  1  0
 24 25  1  0
 25  3  1  0
 25 26  2  0
M  END
> <assay_chembl_id>
CHEMBL2363708

> <assay_description>
SANGER: Inhibition of human 22RV1 cell growth in a cell viability assay.

> <document_journal>
.

> <molecule_chembl_id>
CHEMBL512504

> <standard_value>
35842.27

> <IC50_uM>
35.84227

> <Activity>
No

> <Canonical_Smiles>
N#Cc1c(O)c2c(-c3ccc(-c4ccccc4O)cc3)csc2[nH]c1=O

$$$$

  SciTegic03142313312D

 29 30  0  0  0  0            999 V2000
    5.1983   -3.0012    0.0000 C   0  0
    5.1988   -1.5012    0.0000 C   0  0  3  0  0  0
    4.3327   -2.0011    0.0000 O   0  0
    3.8990   -0.7508    0.0000 C   0  0
    2.5988   -1.5004    0.0000 S   0  0
    2.5983   -3.0004    0.0000 O   0  0
    3.4646   -2.0008    0.0000 O   0  0
    1.2990   -0.7500    0.0000 C   0  0
    1.2990    0.7500    0.0000 C   0  0
    0.0000    1.5000    0.0000 C   0  0
   -1.2990    0.7500    0.0000 C   0  0
   -2.5981    1.5000    0.0000 F   0  0
   -1.2990   -0.7500    0.0000 C   0  0
    0.0000   -1.5000    0.0000 C   0  0
    6.4990   -0.7516    0.0000 C   0  0
    6.4995    0.7484    0.0000 O   0  0
    7.7988   -1.5020    0.0000 N   0  0
    9.0990   -0.7525    0.0000 C   0  0
   10.3991   -1.5006    0.0000 C   0  0
   11.6971   -0.7487    0.0000 C   0  0
   11.6950    0.7512    0.0000 C   0  0
   12.9937    1.5035    0.0000 C   0  0
   14.2917    2.2553    0.0000 N   0  0
   10.3949    1.4994    0.0000 C   0  0
   10.3928    3.0003    0.0000 C   0  0
   11.6903    3.7529    0.0000 F   0  0
    9.0925    3.7480    0.0000 F   0  0
   10.3900    4.5002    0.0000 F   0  0
    9.0969    0.7476    0.0000 C   0  0
  2  1  1  4
  2  3  1  0
  2  4  1  0
  4  5  1  0
  5  6  2  0
  5  7  2  0
  5  8  1  0
  8  9  2  0
  9 10  1  0
 10 11  2  0
 11 12  1  0
 11 13  1  0
 13 14  2  0
 14  8  1  0
  2 15  1  0
 15 16  2  0
 15 17  1  0
 17 18  1  0
 18 19  2  0
 19 20  1  0
 20 21  2  0
 21 22  1  0
 22 23  3  0
 21 24  1  0
 24 25  1  0
 25 26  1  0
 25 27  1  0
 25 28  1  0
 24 29  2  0
 29 18  1  0
M  END
> <assay_chembl_id>
CHEMBL2363708

> <assay_description>
SANGER: Inhibition of human 22RV1 cell growth in a cell viability assay.

> <document_journal>
.

> <molecule_chembl_id>
CHEMBL409

> <standard_value>
38046.19

> <IC50_uM>
38.04619

> <Activity>
No

> <Canonical_Smiles>
CC(O)(CS(=O)(=O)c1ccc(F)cc1)C(=O)Nc1ccc(C#N)c(C(F)(F)F)c1

$$$$

  SciTegic03142313312D

 43 49  0  0  1  0            999 V2000
    2.5919    1.5012    0.0000 O   0  0
    3.8933    0.7554    0.0000 C   0  0
    3.8990   -0.7455    0.0000 C   0  0  2  0  0  0
    5.2003   -1.4932    0.0000 C   0  0
    6.4990   -0.7409    0.0000 C   0  0
    7.8007   -1.4864    0.0000 C   0  0
    9.0971   -0.7319    0.0000 C   0  0
    9.0919    0.7681    0.0000 C   0  0
    7.7903    1.5136    0.0000 C   0  0
    6.4939    0.7591    0.0000 C   0  0
    2.6003   -1.4977    0.0000 N   0  0
    1.2990   -0.7500    0.0000 C   0  0
    1.2990    0.7500    0.0000 N   0  0
    0.0000    1.5000    0.0000 C   0  0
   -0.0031    3.0008    0.0000 O   0  0
   -1.3039    3.7494    0.0000 C   0  0
   -1.3092    5.2494    0.0000 C   0  0
   -2.6108    5.9949    0.0000 C   0  0
   -3.9073    5.2404    0.0000 C   0  0
   -3.9021    3.7404    0.0000 C   0  0
   -2.6005    2.9949    0.0000 C   0  0
   -5.3262    3.2720    0.0000 C   0  0
   -6.2121    4.4824    0.0000 C   0  0
   -5.3346    5.6990    0.0000 C   0  0
   -1.2990    0.7500    0.0000 N   0  0
   -1.2990   -0.7500    0.0000 C   0  0
    0.0000   -1.5000    0.0000 C   0  0
   -0.3114   -2.9665    0.0000 N   0  0
   -1.8032   -3.1233    0.0000 C   0  0
   -2.4133   -1.7530    0.0000 N   0  0
   -3.8794   -1.4442    0.0000 C   0  0
   -4.8823   -2.5608    0.0000 C   0  0
   -6.3506   -2.2538    0.0000 C   0  0
   -7.3506   -3.3718    0.0000 C   0  0
   -6.8824   -4.7969    0.0000 C   0  0
   -7.8829   -5.9155    0.0000 C   0  0
   -9.3517   -5.6108    0.0000 C   0  0
  -10.3500   -6.7304    0.0000 C   0  0
   -9.8795   -8.1547    0.0000 C   0  0
   -8.4108   -8.4595    0.0000 C   0  0
   -7.4125   -7.3399    0.0000 C   0  0
   -5.4142   -5.1040    0.0000 C   0  0
   -4.4141   -3.9859    0.0000 C   0  0
  1  2  1  0
  3  2  1  6
  3  4  1  0
  4  5  1  0
  5  6  2  0
  6  7  1  0
  7  8  2  0
  8  9  1  0
  9 10  2  0
 10  5  1  0
  3 11  1  0
 11 12  1  0
 12 13  2  0
 13 14  1  0
 14 15  1  0
 15 16  1  0
 16 17  2  0
 17 18  1  0
 18 19  2  0
 19 20  1  0
 20 21  2  0
 21 16  1  0
 20 22  1  0
 22 23  1  0
 23 24  1  0
 24 19  1  0
 14 25  2  0
 25 26  1  0
 26 27  2  0
 27 12  1  0
 27 28  1  0
 28 29  2  0
 29 30  1  0
 30 26  1  0
 30 31  1  0
 31 32  1  0
 32 33  2  0
 33 34  1  0
 34 35  2  0
 35 36  1  0
 36 37  2  0
 37 38  1  0
 38 39  2  0
 39 40  1  0
 40 41  2  0
 41 36  1  0
 35 42  1  0
 42 43  2  0
 43 32  1  0
M  END
> <assay_chembl_id>
CHEMBL2363708

> <assay_description>
SANGER: Inhibition of human 22RV1 cell growth in a cell viability assay.

> <document_journal>
.

> <molecule_chembl_id>
CHEMBL259181

> <standard_value>
21237.02

> <IC50_uM>
21.23702

> <Activity>
No

> <Canonical_Smiles>
OC[C@H](Cc1ccccc1)Nc1nc(Oc2ccc3c(c2)CCC3)nc2c1ncn2Cc1ccc(-c2ccccc2)cc1

$$$$

  SciTegic03142313312D

 39 43  0  0  0  0            999 V2000
   -4.6306   -4.5711    0.0000 C   0  0
   -4.1674   -5.9978    0.0000 C   0  0
   -5.1713   -7.1123    0.0000 C   0  0
   -4.7081   -8.5390    0.0000 C   0  0
   -3.2409   -8.8512    0.0000 C   0  0
   -2.7745  -10.2777    0.0000 C   0  0
   -3.7764  -11.3939    0.0000 O   0  0
   -1.3061  -10.5879    0.0000 N   0  0
   -0.8396  -12.0144    0.0000 C   0  0
    0.6276  -12.3266    0.0000 C   0  0
    1.0908  -13.7533    0.0000 C   0  0
    0.0869  -14.8678    0.0000 C   0  0
    0.5534  -16.2943    0.0000 C   0  0
    2.0218  -16.6046    0.0000 N   0  0
    2.4901  -18.0296    0.0000 C   0  0
    3.9584  -18.3367    0.0000 C   0  0
    4.9584  -17.2186    0.0000 N   0  0
    6.4266  -17.5257    0.0000 C   0  0
    4.4902  -15.7936    0.0000 C   0  0
    3.0220  -15.4865    0.0000 C   0  0
   -1.3802  -14.5557    0.0000 C   0  0
   -2.3847  -15.6709    0.0000 C   0  0
   -1.9223  -17.0978    0.0000 F   0  0
   -3.8517  -15.3583    0.0000 F   0  0
   -3.3891  -16.7849    0.0000 F   0  0
   -1.8435  -13.1291    0.0000 C   0  0
   -2.2370   -7.7366    0.0000 C   0  0
   -2.7002   -6.3100    0.0000 C   0  0
   -1.6958   -5.1948    0.0000 C   0  0
   -0.6913   -4.0797    0.0000 C   0  0
    0.3114   -2.9665    0.0000 C   0  0
    1.8032   -3.1233    0.0000 C   0  0
    2.4133   -1.7530    0.0000 N   0  0
    1.2990   -0.7500    0.0000 C   0  0
    1.2990    0.7500    0.0000 C   0  0
    0.0000    1.5000    0.0000 C   0  0
   -1.2990    0.7500    0.0000 C   0  0
   -1.2990   -0.7500    0.0000 N   0  0
    0.0000   -1.5000    0.0000 N   0  0
  1  2  1  0
  2  3  2  0
  3  4  1  0
  4  5  2  0
  5  6  1  0
  6  7  2  0
  6  8  1  0
  8  9  1  0
  9 10  2  0
 10 11  1  0
 11 12  2  0
 12 13  1  0
 13 14  1  0
 14 15  1  0
 15 16  1  0
 16 17  1  0
 17 18  1  0
 17 19  1  0
 19 20  1  0
 20 14  1  0
 12 21  1  0
 21 22  1  0
 22 23  1  0
 22 24  1  0
 22 25  1  0
 21 26  2  0
 26  9  1  0
  5 27  1  0
 27 28  2  0
 28  2  1  0
 28 29  1  0
 29 30  3  0
 30 31  1  0
 31 32  2  0
 32 33  1  0
 33 34  2  0
 34 35  1  0
 35 36  2  0
 36 37  1  0
 37 38  2  0
 38 39  1  0
 39 31  1  0
 39 34  1  0
M  END
> <assay_chembl_id>
CHEMBL2363708

> <assay_description>
SANGER: Inhibition of human 22RV1 cell growth in a cell viability assay.

> <document_journal>
.

> <molecule_chembl_id>
CHEMBL1171837

> <standard_value>
39839.78

> <IC50_uM>
39.83978

> <Activity>
No

> <Canonical_Smiles>
Cc1ccc(C(=O)Nc2ccc(CN3CCN(C)CC3)c(C(F)(F)F)c2)cc1C#Cc1cnc2cccnn12

$$$$

  SciTegic03142313312D

 30 31  0  0  1  0            999 V2000
    3.8999   -5.2449    0.0000 C   0  0
    3.9003   -3.7449    0.0000 O   0  0
    5.1998   -2.9940    0.0000 C   0  0
    6.4989   -3.7440    0.0000 O   0  0
    5.2003   -1.4932    0.0000 C   0  0  2  0  0  0
    6.4990   -0.7409    0.0000 C   0  0
    7.8003   -1.4887    0.0000 C   0  0
    9.0990   -0.7364    0.0000 S   0  0
   10.3996   -1.4837    0.0000 C   0  0
    3.8990   -0.7455    0.0000 N   0  0
    2.6003   -1.4977    0.0000 C   0  0
    2.6030   -2.9977    0.0000 O   0  0
    1.2990   -0.7500    0.0000 C   0  0
    1.2990    0.7500    0.0000 C   0  0
    0.0000    1.5000    0.0000 C   0  0
   -1.2990    0.7500    0.0000 C   0  0
   -2.6003    1.4977    0.0000 N   0  0
   -3.8990    0.7455    0.0000 C   0  0
   -5.2003    1.4932    0.0000 C   0  0  1  0  0  0
   -5.2029    2.9932    0.0000 N   0  0
   -6.4990    0.7409    0.0000 C   0  0
   -7.7996    1.4882    0.0000 S   0  0
   -1.2990   -0.7500    0.0000 C   0  0
    0.0000   -1.5000    0.0000 C   0  0
    0.0000   -3.0008    0.0000 C   0  0
   -1.2978   -3.7529    0.0000 C   0  0
   -1.2955   -5.2529    0.0000 C   0  0
    0.0048   -6.0009    0.0000 C   0  0
    1.3026   -5.2488    0.0000 C   0  0
    1.3002   -3.7488    0.0000 C   0  0
  1  2  1  0
  2  3  1  0
  3  4  2  0
  3  5  1  0
  5  6  1  1
  6  7  1  0
  7  8  1  0
  8  9  1  0
  5 10  1  0
 10 11  1  0
 11 12  2  0
 11 13  1  0
 13 14  2  0
 14 15  1  0
 15 16  2  0
 16 17  1  0
 17 18  1  0
 18 19  1  0
 19 20  1  6
 19 21  1  0
 21 22  1  0
 16 23  1  0
 23 24  2  0
 24 13  1  0
 24 25  1  0
 25 26  2  0
 26 27  1  0
 27 28  2  0
 28 29  1  0
 29 30  2  0
 30 25  1  0
M  END
> <assay_chembl_id>
CHEMBL2363708

> <assay_description>
SANGER: Inhibition of human 22RV1 cell growth in a cell viability assay.

> <document_journal>
.

> <molecule_chembl_id>
CHEMBL135561

> <standard_value>
91340.29

> <IC50_uM>
91.34029

> <Activity>
No

> <Canonical_Smiles>
COC(=O)[C@H](CCSC)NC(=O)c1ccc(NC[C@@H](N)CS)cc1-c1ccccc1

$$$$

  SciTegic03142313312D

 21 21  0  0  0  0            999 V2000
    9.0769  -12.7722    0.0000 C   0  0
    7.7794  -12.0195    0.0000 C   0  0
    7.7815  -10.5187    0.0000 C   0  0
    6.4833   -9.7656    0.0000 C   0  0
    6.4855   -8.2648    0.0000 C   0  0
    5.1873   -7.5117    0.0000 C   0  0
    5.1894   -6.0109    0.0000 C   0  0
    3.8912   -5.2578    0.0000 C   0  0
    3.8933   -3.7570    0.0000 C   0  0
    2.5951   -3.0039    0.0000 C   0  0
    2.5973   -1.5031    0.0000 C   0  0
    1.2990   -0.7500    0.0000 C   0  0
    1.2990    0.7500    0.0000 C   0  0
    2.5981    1.5000    0.0000 O   0  0
    0.0000    1.5000    0.0000 C   0  0
    0.0000    3.0000    0.0000 O   0  0
   -1.2990    0.7500    0.0000 C   0  0
   -1.2990   -0.7500    0.0000 C   0  0
   -2.5981   -1.5000    0.0000 O   0  0
    0.0000   -1.5000    0.0000 C   0  0
    0.0000   -3.0000    0.0000 O   0  0
  1  2  1  0
  2  3  1  0
  3  4  1  0
  4  5  1  0
  5  6  1  0
  6  7  1  0
  7  8  1  0
  8  9  1  0
  9 10  1  0
 10 11  1  0
 11 12  1  0
 12 13  2  0
 13 14  1  0
 13 15  1  0
 15 16  2  0
 15 17  1  0
 17 18  2  0
 18 19  1  0
 18 20  1  0
 20 12  1  0
 20 21  2  0
M  END
> <assay_chembl_id>
CHEMBL2363708

> <assay_description>
SANGER: Inhibition of human 22RV1 cell growth in a cell viability assay.

> <document_journal>
.

> <molecule_chembl_id>
CHEMBL221137

> <standard_value>
22543.46

> <IC50_uM>
22.54346

> <Activity>
No

> <Canonical_Smiles>
CCCCCCCCCCCC1=C(O)C(=O)C=C(O)C1=O

$$$$

  SciTegic03142313312D

 29 31  0  0  0  0            999 V2000
    5.1996   -1.4928    0.0000 C   0  0
    3.8990   -0.7455    0.0000 C   0  0
    2.6003   -1.4977    0.0000 C   0  0
    1.2990   -0.7500    0.0000 C   0  0
    1.2990    0.7500    0.0000 C   0  0
    0.0000    1.5000    0.0000 C   0  0
   -1.2990    0.7500    0.0000 C   0  0
   -1.2990   -0.7500    0.0000 C   0  0
   -2.6003   -1.4978    0.0000 C   0  0
   -3.8990   -0.7455    0.0000 N   0  0
   -5.2003   -1.4932    0.0000 N   0  0
   -6.4990   -0.7410    0.0000 C   0  0
   -6.4964    0.7590    0.0000 O   0  0
   -7.8003   -1.4887    0.0000 C   0  0
   -9.0990   -0.7365    0.0000 N   0  0
  -10.4007   -1.4819    0.0000 C   0  0
  -11.6971   -0.7274    0.0000 C   0  0
  -11.6919    0.7726    0.0000 N   0  0
  -12.9875    1.5301    0.0000 C   0  0
  -12.9802    3.0310    0.0000 C   0  0
  -14.2740    3.7900    0.0000 C   0  0
  -14.2636    5.2900    0.0000 C   0  0
  -12.9594    6.0310    0.0000 C   0  0
  -11.6656    5.2720    0.0000 C   0  0
  -11.6760    3.7720    0.0000 C   0  0
  -10.3903    1.5181    0.0000 C   0  0
   -9.0939    0.7636    0.0000 C   0  0
    0.0000   -1.5000    0.0000 C   0  0
    0.0000   -3.0000    0.0000 O   0  0
  1  2  2  0
  2  3  1  0
  3  4  1  0
  4  5  2  0
  5  6  1  0
  6  7  2  0
  7  8  1  0
  8  9  1  0
  9 10  2  0
 10 11  1  0
 11 12  1  0
 12 13  2  0
 12 14  1  0
 14 15  1  0
 15 16  1  0
 16 17  1  0
 17 18  1  0
 18 19  1  0
 19 20  1  0
 20 21  2  0
 21 22  1  0
 22 23  2  0
 23 24  1  0
 24 25  2  0
 25 20  1  0
 18 26  1  0
 26 27  1  0
 27 15  1  0
  8 28  2  0
 28  4  1  0
 28 29  1  0
M  END
> <assay_chembl_id>
CHEMBL2363708

> <assay_description>
SANGER: Inhibition of human 22RV1 cell growth in a cell viability assay.

> <document_journal>
.

> <molecule_chembl_id>
CHEMBL591429

> <standard_value>
41978.22

> <IC50_uM>
41.97822

> <Activity>
No

> <Canonical_Smiles>
C=CCc1cccc(/C=N/NC(=O)CN2CCN(Cc3ccccc3)CC2)c1O

$$$$

  SciTegic03142313312D

 29 32  0  0  0  0            999 V2000
    7.7938   -3.0046    0.0000 C   0  0
    6.4946   -3.7543    0.0000 O   0  0
    5.1945   -3.0045    0.0000 C   0  0
    5.1969   -1.5045    0.0000 C   0  0
    3.8991   -0.7525    0.0000 C   0  0
    2.5987   -1.5004    0.0000 C   0  0
    1.2990   -0.7500    0.0000 C   0  0
    1.2990    0.7500    0.0000 C   0  0
    0.0000    1.5000    0.0000 C   0  0
   -0.3115    2.9665    0.0000 N   0  0
   -1.8032    3.1233    0.0000 C   0  0
   -2.4133    1.7530    0.0000 C   0  0
   -1.2990    0.7500    0.0000 N   0  0
   -1.2990   -0.7500    0.0000 C   0  0
   -2.5972   -1.5031    0.0000 N   0  0
   -2.5951   -3.0039    0.0000 C   0  0
   -1.2935   -3.7495    0.0000 N   0  0
   -1.2883   -5.2495    0.0000 C   0  0
   -2.5847   -6.0040    0.0000 C   0  0
   -3.8863   -5.2585    0.0000 C   0  0
   -3.8915   -3.7585    0.0000 C   0  0
   -5.1954   -3.0153    0.0000 C   0  0
   -5.2033   -1.5153    0.0000 N   0  0
   -6.4908   -3.7717    0.0000 O   0  0
    0.0000   -1.5000    0.0000 N   0  0
    2.5965   -3.0004    0.0000 C   0  0
    3.8943   -3.7525    0.0000 C   0  0
    3.8888   -5.2533    0.0000 O   0  0
    2.5875   -5.9994    0.0000 C   0  0
  1  2  1  0
  2  3  1  0
  3  4  2  0
  4  5  1  0
  5  6  2  0
  6  7  1  0
  7  8  2  0
  8  9  1  0
  9 10  2  0
 10 11  1  0
 11 12  2  0
 12 13  1  0
 13  9  1  0
 13 14  1  0
 14 15  1  0
 15 16  1  0
 16 17  2  0
 17 18  1  0
 18 19  2  0
 19 20  1  0
 20 21  2  0
 21 16  1  0
 21 22  1  0
 22 23  1  0
 22 24  2  0
 14 25  2  0
 25  7  1  0
  6 26  1  0
 26 27  2  0
 27  3  1  0
 27 28  1  0
 28 29  1  0
M  END
> <assay_chembl_id>
CHEMBL2363708

> <assay_description>
SANGER: Inhibition of human 22RV1 cell growth in a cell viability assay.

> <document_journal>
.

> <molecule_chembl_id>
CHEMBL1190711

> <standard_value>
34796.51

> <IC50_uM>
34.79651

> <Activity>
No

> <Canonical_Smiles>
COc1ccc(-c2cc3nccn3c(Nc3ncccc3C(N)=O)n2)cc1OC

$$$$

  SciTegic03142313312D

 46 48  0  0  1  0            999 V2000
    3.3226   -0.5678    0.0000 C   0  0
    3.7653    0.8653    0.0000 C   0  0
    5.2285    1.1995    0.0000 C   0  0
    5.6699    2.6331    0.0000 C   0  0
    6.2502    0.1002    0.0000 C   0  0
    5.8088   -1.3334    0.0000 O   0  0
    7.7133    0.4344    0.0000 O   0  0
    8.7333   -0.6631    0.0000 C   0  0  1  0  0  0
    8.4477   -2.1356    0.0000 C   0  0
    7.0884   -2.7700    0.0000 C   0  0
    9.7602   -2.8626    0.0000 C   0  0
   10.8568   -1.8392    0.0000 C   0  0  2  0  0  0
   10.2220   -0.4797    0.0000 C   0  0  2  0  0  0
   10.9505    0.8296    0.0000 O   0  0
   10.1804    2.1177    0.0000 C   0  0
    8.6805    2.0944    0.0000 O   0  0
   10.9101    3.4292    0.0000 C   0  0
   10.1399    4.7174    0.0000 C   0  0
   10.8696    6.0289    0.0000 C   0  0
   10.0995    7.3171    0.0000 C   0  0
   10.8292    8.6286    0.0000 C   0  0
   10.0591    9.9167    0.0000 C   0  0
   10.7884   11.2275    0.0000 C   0  0
   12.3407   -2.0585    0.0000 C   0  0  1  0  0  0
   13.8327   -2.2127    0.0000 C   0  0
   11.6557   -0.7519    0.0000 O   0  0
   12.4180    0.5409    0.0000 C   0  0
   13.9179    0.5268    0.0000 C   0  0
   11.6807    1.8472    0.0000 O   0  0
   13.0944   -3.3553    0.0000 C   0  0
   12.5504   -4.7532    0.0000 C   0  0  2  0  0  0
   13.5780   -5.8498    0.0000 O   0  0
   15.0398   -5.5095    0.0000 C   0  0
   15.4753   -4.0741    0.0000 O   0  0
   16.0660   -6.6046    0.0000 C   0  0
   17.5277   -6.2644    0.0000 C   0  0
   18.5534   -7.3589    0.0000 C   0  0
   11.1184   -5.1995    0.0000 C   0  0  1  0  0  0
   11.8365   -5.8954    0.0000 O   0  0
    9.8766   -4.3581    0.0000 C   0  0  1  0  0  0
    8.7034   -5.2884    0.0000 O   0  0
    9.2191   -6.6970    0.0000 C   0  0
    8.3827   -7.9421    0.0000 O   0  0
   10.7181   -6.6418    0.0000 C   0  0  2  0  0  0
   11.7054   -6.4829    0.0000 C   0  0
   10.1431   -8.0272    0.0000 O   0  0
  1  2  1  0
  2  3  2  0
  3  4  1  0
  3  5  1  0
  5  6  2  0
  5  7  1  0
  8  7  1  6
  8  9  1  0
  9 10  1  0
  9 11  2  0
 12 11  1  6
 12 13  1  0
 13  8  1  0
 13 14  1  1
 14 15  1  0
 15 16  2  0
 15 17  1  0
 17 18  1  0
 18 19  1  0
 19 20  1  0
 20 21  1  0
 21 22  1  0
 22 23  1  0
 12 24  1  0
 24 25  1  6
 24 26  1  0
 26 27  1  0
 27 28  1  0
 27 29  2  0
 24 30  1  0
 30 31  1  0
 31 32  1  6
 32 33  1  0
 33 34  2  0
 33 35  1  0
 35 36  1  0
 36 37  1  0
 31 38  1  0
 38 39  1  1
 38 40  1  0
 40 11  1  0
 40 41  1  1
 41 42  1  0
 42 43  2  0
 42 44  1  0
 44 38  1  0
 44 45  1  1
 44 46  1  0
M  END
> <assay_chembl_id>
CHEMBL2363708

> <assay_description>
SANGER: Inhibition of human 22RV1 cell growth in a cell viability assay.

> <document_journal>
.

> <molecule_chembl_id>
CHEMBL96926

> <standard_value>
1.171

> <IC50_uM>
0.001171

> <Activity>
Yes

> <Canonical_Smiles>
C/C=C(/C)C(=O)O[C@H]1C(C)=C2[C@H]([C@@H]1OC(=O)CCCCCCC)[C@@](C)(OC(C)=O)C[C@H](OC(=O)CCC)[C@@]1(O)[C@H]2OC(=O)[C@@]1(C)O

$$$$

  SciTegic03142313312D

 24 27  0  0  0  0            999 V2000
    6.8067   -6.0878    0.0000 C   0  0
    5.5290   -6.8737    0.0000 O   0  0
    4.2107   -6.1619    0.0000 C   0  0
    4.0146   -4.6747    0.0000 C   0  0
    2.5536   -4.4230    0.0000 C   0  0
    1.8032   -3.1233    0.0000 C   0  0
    2.4133   -1.7530    0.0000 C   0  0
    1.2990   -0.7500    0.0000 C   0  0
    1.2990    0.7500    0.0000 C   0  0
    0.0000    1.5000    0.0000 C   0  0
   -1.2990    0.7500    0.0000 C   0  0
   -1.2990   -0.7500    0.0000 C   0  0
    0.0000   -1.5000    0.0000 C   0  0
    0.3114   -2.9665    0.0000 N   0  0
    1.8242   -5.7201    0.0000 N   0  0
    2.8570   -6.8080    0.0000 C   0  0
    2.5812   -8.2806    0.0000 C   0  0
    1.1659   -8.7799    0.0000 C   0  0
   -0.0469   -7.9190    0.0000 N   0  0
   -1.2399   -8.8283    0.0000 C   0  0
   -2.6768   -8.3976    0.0000 C   0  0
   -0.7438  -10.2439    0.0000 C   0  0
    0.7558  -10.2095    0.0000 C   0  0
    1.6721  -11.3971    0.0000 C   0  0
  1  2  1  0
  2  3  1  0
  3  4  2  0
  4  5  1  0
  5  6  1  0
  6  7  2  0
  7  8  1  0
  8  9  2  0
  9 10  1  0
 10 11  2  0
 11 12  1  0
 12 13  2  0
 13  8  1  0
 13 14  1  0
 14  6  1  0
  5 15  2  0
 15 16  1  0
 16  3  1  0
 16 17  2  0
 17 18  1  0
 18 19  1  0
 19 20  1  0
 20 21  1  0
 20 22  2  0
 22 23  1  0
 23 18  2  0
 23 24  1  0
M  END
> <assay_chembl_id>
CHEMBL2363708

> <assay_description>
SANGER: Inhibition of human 22RV1 cell growth in a cell viability assay.

> <document_journal>
.

> <molecule_chembl_id>
CHEMBL2107358

> <standard_value>
273.78

> <IC50_uM>
0.27378

> <Activity>
Yes

> <RemovedSalts>
CS(=O)(=O)O

> <Canonical_Smiles>
COC1=CC(c2cc3ccccc3[nH]2)=N/C1=C\c1[nH]c(C)cc1C.CS(=O)(=O)O

$$$$

  SciTegic03142313312D

 26 28  0  0  0  0            999 V2000
    2.6030   -2.9977    0.0000 C   0  0
    2.6003   -1.4977    0.0000 C   0  0
    3.8990   -0.7455    0.0000 C   0  0
    5.2007   -1.4909    0.0000 C   0  0
    6.4972   -0.7364    0.0000 C   0  0
    6.4920    0.7636    0.0000 C   0  0
    7.7876    1.5211    0.0000 C   0  0
    7.7802    3.0211    0.0000 O   0  0
    9.0905    0.7779    0.0000 O   0  0
    5.1903    1.5091    0.0000 C   0  0
    3.8939    0.7546    0.0000 C   0  0
    1.2990   -0.7500    0.0000 C   0  0
    1.2990    0.7500    0.0000 C   0  0
    0.0000    1.5000    0.0000 C   0  0
   -1.2990    0.7500    0.0000 C   0  0
   -1.2990   -0.7500    0.0000 C   0  0
    0.0000   -1.5000    0.0000 C   0  0
    0.0000   -3.0000    0.0000 C   0  0
   -2.5981    1.5000    0.0000 C   0  0
   -2.5627    0.0004    0.0000 C   0  0
   -3.8792    2.2803    0.0000 C   0  0
   -2.5981    3.0000    0.0000 C   0  0
   -1.2991    3.7500    0.0000 C   0  0
    0.0000    3.0000    0.0000 C   0  0
    1.2810    2.2196    0.0000 C   0  0
   -0.0353    4.4996    0.0000 C   0  0
  1  2  2  0
  2  3  1  0
  3  4  2  0
  4  5  1  0
  5  6  2  0
  6  7  1  0
  7  8  2  0
  7  9  1  0
  6 10  1  0
 10 11  2  0
 11  3  1  0
  2 12  1  0
 12 13  2  0
 13 14  1  0
 14 15  2  0
 15 16  1  0
 16 17  2  0
 17 12  1  0
 17 18  1  0
 15 19  1  0
 19 20  1  0
 19 21  1  0
 19 22  1  0
 22 23  1  0
 23 24  1  0
 24 14  1  0
 24 25  1  0
 24 26  1  0
M  END
> <assay_chembl_id>
CHEMBL2363708

> <assay_description>
SANGER: Inhibition of human 22RV1 cell growth in a cell viability assay.

> <document_journal>
.

> <molecule_chembl_id>
CHEMBL1023

> <standard_value>
48468.64

> <IC50_uM>
48.46864

> <Activity>
No

> <Canonical_Smiles>
C=C(c1ccc(C(=O)O)cc1)c1cc2c(cc1C)C(C)(C)CCC2(C)C

$$$$

  SciTegic03142313312D

 34 37  0  0  0  0            999 V2000
    9.6933   -4.1283    0.0000 C   0  0
    8.8153   -2.9121    0.0000 C   0  0
    7.3222   -3.0635    0.0000 N   0  0
    6.4437   -1.8466    0.0000 C   0  0
    7.0583   -0.4784    0.0000 O   0  0
    4.9531   -1.9978    0.0000 C   0  0
    4.2010   -3.2956    0.0000 N   0  0
    2.7343   -2.9815    0.0000 O   0  0
    2.5987   -1.5004    0.0000 C   0  0
    1.2990   -0.7500    0.0000 C   0  0
    1.2990    0.7500    0.0000 C   0  0
    0.0000    1.5000    0.0000 C   0  0
    0.0031    3.0008    0.0000 C   0  0
    1.3032    3.7490    0.0000 C   0  0
   -1.2947    3.7531    0.0000 C   0  0
   -1.2990    0.7500    0.0000 C   0  0
   -2.5981    1.5000    0.0000 O   0  0
   -1.2990   -0.7500    0.0000 C   0  0
    0.0000   -1.5000    0.0000 C   0  0
    0.0000   -3.0000    0.0000 O   0  0
    3.9511   -0.8815    0.0000 C   0  0
    4.2567    0.5878    0.0000 C   0  0
    3.2235    1.6679    0.0000 C   0  0
    3.6446    3.1076    0.0000 C   0  0
    5.1019    3.4627    0.0000 C   0  0
    5.5263    4.9023    0.0000 C   0  0
    6.9849    5.2556    0.0000 N   0  0
    7.4111    6.6938    0.0000 C   0  0
    8.8697    7.0439    0.0000 C   0  0
    9.9022    5.9558    0.0000 O   0  0
    9.4761    4.5176    0.0000 C   0  0
    8.0175    4.1675    0.0000 C   0  0
    6.1382    2.3782    0.0000 C   0  0
    5.7171    0.9385    0.0000 C   0  0
  1  2  1  0
  2  3  1  0
  3  4  1  0
  4  5  2  0
  4  6  1  0
  6  7  2  0
  7  8  1  0
  8  9  1  0
  9 10  1  0
 10 11  2  0
 11 12  1  0
 12 13  1  0
 13 14  1  0
 13 15  1  0
 12 16  2  0
 16 17  1  0
 16 18  1  0
 18 19  2  0
 19 10  1  0
 19 20  1  0
  9 21  2  0
 21  6  1  0
 21 22  1  0
 22 23  2  0
 23 24  1  0
 24 25  2  0
 25 26  1  0
 26 27  1  0
 27 28  1  0
 28 29  1  0
 29 30  1  0
 30 31  1  0
 31 32  1  0
 32 27  1  0
 25 33  1  0
 33 34  2  0
 34 22  1  0
M  END
> <assay_chembl_id>
CHEMBL2363708

> <assay_description>
SANGER: Inhibition of human 22RV1 cell growth in a cell viability assay.

> <document_journal>
.

> <molecule_chembl_id>
CHEMBL252164

> <standard_value>
35.07

> <IC50_uM>
0.03507

> <Activity>
Yes

> <Canonical_Smiles>
CCNC(=O)c1noc(-c2cc(C(C)C)c(O)cc2O)c1-c1ccc(CN2CCOCC2)cc1

$$$$

  SciTegic03142313312D

 64 67  0  0  1  0            999 V2000
  -13.0244   -2.8941    0.0000 C   0  0
  -11.6779   -2.2332    0.0000 C   0  0
  -10.4310   -3.0685    0.0000 C   0  0
   -9.0837   -2.4072    0.0000 C   0  0
   -7.8368   -3.2425    0.0000 C   0  0
   -6.4896   -2.5812    0.0000 C   0  0
   -5.2427   -3.4165    0.0000 C   0  0
   -3.8954   -2.7551    0.0000 C   0  0
   -3.7950   -1.2585    0.0000 O   0  0
   -2.6485   -3.5905    0.0000 O   0  0
   -1.3000   -2.9300    0.0000 C   0  0  1  0  0  0
    0.0400   -3.8000    0.0000 C   0  0
    0.0431   -5.2985    0.0000 C   0  0
    1.3439   -6.0470    0.0000 C   0  0
    2.6417   -5.2948    0.0000 O   0  0
    1.3470   -7.5478    0.0000 O   0  0
    2.6471   -8.2960    0.0000 C   0  0
    1.3800   -2.9300    0.0000 C   0  0
    1.3800   -1.5600    0.0000 C   0  0  1  0  0  0
    2.7200   -0.6900    0.0000 C   0  0
    4.0900   -1.5600    0.0000 C   0  0  2  0  0  0
    4.1052   -3.0584    0.0000 C   0  0  1  0  0  0
    5.4121   -3.7947    0.0000 C   0  0
    2.8144   -3.8225    0.0000 O   0  0
    5.4300   -0.6900    0.0000 O   0  0
    5.4300    0.7900    0.0000 C   0  0
    6.7501    1.5024    0.0000 O   0  0
    4.0900    1.6700    0.0000 C   0  0
    2.7200    0.7900    0.0000 C   0  0  2  0  0  0
    2.7150   -0.2100    0.0000 O   0  0
    1.3800    1.6700    0.0000 C   0  0
    1.3800    3.0400    0.0000 C   0  0  2  0  0  0
    2.7200    3.9200    0.0000 C   0  0
    2.7200    5.2900    0.0000 C   0  0  2  0  0  0
    4.0738    5.9397    0.0000 O   0  0
    5.3125    5.0923    0.0000 C   0  0
    5.1975    3.5967    0.0000 C   0  0
    6.6654    5.7400    0.0000 O   0  0
    1.3800    6.1700    0.0000 C   0  0
    0.5047    6.6536    0.0000 C   0  0
    2.6928    6.8956    0.0000 C   0  0
    0.0400    5.2900    0.0000 C   0  0  2  0  0  0
    0.0400    6.2900    0.0000 O   0  0
   -1.3000    6.1700    0.0000 C   0  0
   -2.6400    5.2900    0.0000 C   0  0  2  0  0  0
   -3.9900    6.1700    0.0000 C   0  0
   -5.3300    5.2900    0.0000 C   0  0
   -6.6838    5.9397    0.0000 C   0  0
   -7.9225    5.0923    0.0000 C   0  0
   -7.8075    3.5967    0.0000 O   0  0
   -9.2761    5.7404    0.0000 O   0  0
  -10.5141    4.8934    0.0000 C   0  0
   -5.3300    3.9200    0.0000 C   0  0
   -3.9900    3.0400    0.0000 C   0  0  2  0  0  0
   -3.9900    1.6700    0.0000 C   0  0
   -2.6400    0.7900    0.0000 C   0  0
   -2.6400   -0.6900    0.0000 C   0  0
   -2.6403   -1.6900    0.0000 C   0  0
   -3.8984    0.1263    0.0000 C   0  0
   -1.3000   -1.5600    0.0000 C   0  0  1  0  0  0
   -2.1788   -2.0372    0.0000 O   0  0
    0.0400   -0.6900    0.0000 O   0  0
   -2.6400    3.9200    0.0000 O   0  0
    0.0400    3.9200    0.0000 O   0  0
  1  2  1  0
  2  3  1  0
  3  4  1  0
  4  5  2  0
  5  6  1  0
  6  7  2  0
  7  8  1  0
  8  9  2  0
  8 10  1  0
 11 10  1  6
 11 12  1  0
 12 13  2  0
 13 14  1  0
 14 15  2  0
 14 16  1  0
 16 17  1  0
 12 18  1  0
 19 18  1  6
 19 20  1  0
 21 20  1  1
 21 22  1  0
 22 23  1  1
 22 24  1  0
 21 25  1  0
 25 26  1  0
 26 27  2  0
 26 28  1  0
 28 29  1  0
 29 30  1  6
 29 31  1  0
 32 31  1  1
 32 33  1  0
 33 34  1  0
 34 35  1  1
 35 36  1  0
 36 37  1  0
 36 38  2  0
 34 39  1  0
 39 40  1  0
 39 41  1  0
 39 42  1  0
 42 43  1  6
 42 44  1  0
 45 44  1  1
 45 46  1  0
 46 47  1  0
 47 48  2  0
 48 49  1  0
 49 50  2  0
 49 51  1  0
 51 52  1  0
 47 53  1  0
 54 53  1  1
 54 55  1  0
 55 56  2  0
 56 57  1  0
 57 58  1  0
 57 59  1  0
 57 60  1  0
 60 11  1  0
 60 61  1  1
 60 62  1  0
 62 19  1  0
 54 63  1  0
 63 45  1  0
 42 64  1  0
 64 32  1  0
M  END
> <assay_chembl_id>
CHEMBL2363708

> <assay_description>
SANGER: Inhibition of human 22RV1 cell growth in a cell viability assay.

> <document_journal>
.

> <molecule_chembl_id>
CHEMBL449158

> <standard_value>
406

> <IC50_uM>
0.406

> <Activity>
Yes

> <Canonical_Smiles>
CCC/C=C/C=C/C(=O)O[C@H]1/C(=C/C(=O)OC)C[C@H]2C[C@H]([C@@H](C)O)OC(=O)C[C@H](O)C[C@@H]3C[C@H](OC(C)=O)C(C)(C)[C@](O)(C[C@@H]4C/C(=C/C(=O)OC)C[C@H](/C=C/C(C)(C)[C@]1(O)O2)O4)O3

$$$$

  SciTegic03142313312D

 35 37  0  0  1  0            999 V2000
   -2.6450    2.0606    0.0000 C   0  0
   -3.9376    2.8217    0.0000 C   0  0
   -5.2435    2.0821    0.0000 C   0  0
   -5.2569    0.5814    0.0000 C   0  0
   -6.6940    0.1983    0.0000 C   0  0
   -6.7566   -1.3004    0.0000 S   0  0
   -5.3506   -1.8231    0.0000 C   0  0
   -4.9471   -3.2678    0.0000 C   0  0
   -4.4190   -0.6475    0.0000 N   0  0
   -3.9240    4.3226    0.0000 C   0  0  2  0  0  0
   -5.3603    4.5949    0.0000 C   0  0
   -6.3334    3.4456    0.0000 C   0  0  2  0  0  0
   -7.4676    2.2919    0.0000 O   0  0
   -5.8441    2.0516    0.0000 C   0  0  1  0  0  0
   -6.0768    0.5697    0.0000 C   0  0
   -4.3440    1.8025    0.0000 C   0  0
   -3.8648    0.3867    0.0000 C   0  0
   -2.4184    0.1362    0.0000 C   0  0
   -1.9131   -1.2521    0.0000 C   0  0  2  0  0  0
   -2.8780   -2.4005    0.0000 C   0  0
   -0.4449   -1.5128    0.0000 C   0  0  2  0  0  0
    0.0682   -2.9223    0.0000 O   0  0
    0.5123   -0.3693    0.0000 C   0  0  1  0  0  0
    1.9897   -0.6289    0.0000 C   0  0
    0.0070    1.0189    0.0000 C   0  0
   -1.4698    1.2816    0.0000 O   0  0
    0.9540    2.1406    0.0000 C   0  0
    1.8927    3.3106    0.0000 C   0  0
    1.4319    0.7188    0.0000 C   0  0
    0.4488    3.5288    0.0000 C   0  0  1  0  0  0
    1.4169    4.6745    0.0000 O   0  0
   -1.0035    3.7953    0.0000 C   0  0
   -1.5088    5.1836    0.0000 C   0  0
   -0.5350    6.3245    0.0000 O   0  0
   -2.9669    5.4660    0.0000 O   0  0
  1  2  1  0
  2  3  2  0
  3  4  1  0
  4  5  2  0
  5  6  1  0
  6  7  1  0
  7  8  1  0
  7  9  2  0
  9  4  1  0
 10  2  1  6
 10 11  1  0
 12 11  1  1
 12 13  1  0
 13 14  1  0
 14 12  1  0
 14 15  1  6
 14 16  1  0
 16 17  1  0
 17 18  1  0
 18 19  1  0
 19 20  1  1
 19 21  1  0
 21 22  1  1
 21 23  1  0
 23 24  1  6
 23 25  1  0
 25 26  2  0
 25 27  1  0
 27 28  1  0
 27 29  1  0
 27 30  1  0
 30 31  1  6
 30 32  1  0
 32 33  1  0
 33 34  2  0
 33 35  1  0
 35 10  1  0
M  END
> <assay_chembl_id>
CHEMBL2363708

> <assay_description>
SANGER: Inhibition of human 22RV1 cell growth in a cell viability assay.

> <document_journal>
.

> <molecule_chembl_id>
CHEMBL94657

> <standard_value>
8.411

> <IC50_uM>
0.008411

> <Activity>
Yes

> <Canonical_Smiles>
C/C(=C\c1csc(C)n1)[C@@H]1C[C@@H]2O[C@]2(C)CCC[C@H](C)[C@H](O)[C@@H](C)C(=O)C(C)(C)[C@@H](O)CC(=O)O1

$$$$

  SciTegic03142313312D

 27 30  0  0  0  0            999 V2000
    5.5505   -4.4276    0.0000 N   0  0
    4.0505   -4.4250    0.0000 C   0  0
    2.5497   -4.4224    0.0000 C   0  0
    1.8032   -3.1233    0.0000 C   0  0
    0.3121   -2.9603    0.0000 N   0  0
    0.0068   -1.4925    0.0000 C   0  0
   -1.2891   -0.7371    0.0000 C   0  0
   -1.2829    0.7629    0.0000 C   0  0
    0.0192    1.5075    0.0000 C   0  0
    1.3152    0.7521    0.0000 C   0  0
    1.3089   -0.7479    0.0000 C   0  0
    2.4190   -1.7555    0.0000 S   0  0
    1.7974   -5.7210    0.0000 C   0  0
    2.5428   -7.0227    0.0000 C   0  0
    1.7883   -8.3192    0.0000 C   0  0
    0.2883   -8.3139    0.0000 N   0  0
   -0.4572   -7.0123    0.0000 C   0  0
   -1.9580   -7.0040    0.0000 N   0  0
   -2.7020   -5.7006    0.0000 C   0  0
   -4.2028   -5.6923    0.0000 C   0  0
   -4.9469   -4.3889    0.0000 C   0  0
   -6.4469   -4.3784    0.0000 C   0  0
   -7.1878   -3.0742    0.0000 C   0  0
   -6.4288   -1.7804    0.0000 C   0  0
   -4.9289   -1.7908    0.0000 N   0  0
   -4.1879   -3.0950    0.0000 C   0  0
    0.2973   -5.7159    0.0000 N   0  0
  1  2  3  0
  2  3  1  0
  3  4  2  0
  4  5  1  0
  5  6  1  0
  6  7  2  0
  7  8  1  0
  8  9  2  0
  9 10  1  0
 10 11  2  0
 11  6  1  0
 11 12  1  0
 12  4  1  0
  3 13  1  0
 13 14  2  0
 14 15  1  0
 15 16  2  0
 16 17  1  0
 17 18  1  0
 18 19  1  0
 19 20  1  0
 20 21  1  0
 21 22  2  0
 22 23  1  0
 23 24  2  0
 24 25  1  0
 25 26  2  0
 26 21  1  0
 17 27  2  0
 27 13  1  0
M  END
> <assay_chembl_id>
CHEMBL2363708

> <assay_description>
SANGER: Inhibition of human 22RV1 cell growth in a cell viability assay.

> <document_journal>
.

> <molecule_chembl_id>
CHEMBL191384

> <standard_value>
86411.17

> <IC50_uM>
86.41117

> <Activity>
No

> <Canonical_Smiles>
N#C/C(=C1/Nc2ccccc2S1)c1ccnc(NCCc2cccnc2)n1

$$$$

  SciTegic03142313312D

 26 30  0  0  1  0            999 V2000
    2.5228   -3.0436    0.0000 C   0  0
    1.2626   -2.2300    0.0000 C   0  0
    1.2990   -0.7500    0.0000 C   0  0  1  0  0  0
    2.5793    0.0316    0.0000 O   0  0
    1.2990    0.7500    0.0000 C   0  0
    2.5981    1.5000    0.0000 O   0  0
    0.0000    1.5000    0.0000 O   0  0
   -1.2990    0.7500    0.0000 C   0  0
   -1.2990   -0.7500    0.0000 C   0  0
    0.0000   -1.5000    0.0000 C   0  0
    0.0000   -3.0000    0.0000 C   0  0
   -1.2990   -3.7500    0.0000 C   0  0
   -2.5981   -3.0000    0.0000 N   0  0
   -2.5981   -1.5000    0.0000 C   0  0
   -3.8971   -0.7500    0.0000 O   0  0
   -3.7124   -4.0030    0.0000 C   0  0
   -3.1022   -5.3733    0.0000 C   0  0
   -3.7125   -6.7424    0.0000 C   0  0
   -2.8308   -7.9559    0.0000 C   0  0
   -3.4409   -9.3262    0.0000 C   0  0
   -2.5592  -10.5397    0.0000 C   0  0
   -1.0674  -10.3829    0.0000 C   0  0
   -0.4573   -9.0126    0.0000 C   0  0
   -1.3390   -7.7991    0.0000 C   0  0
   -0.7289   -6.4288    0.0000 N   0  0
   -1.6105   -5.2165    0.0000 C   0  0
  1  2  1  0
  2  3  1  0
  3  4  1  1
  3  5  1  0
  5  6  2  0
  5  7  1  0
  7  8  1  0
  8  9  1  0
  9 10  2  0
 10  3  1  0
 10 11  1  0
 11 12  2  0
 12 13  1  0
 13 14  1  0
 14  9  1  0
 14 15  2  0
 13 16  1  0
 16 17  1  0
 17 18  2  0
 18 19  1  0
 19 20  2  0
 20 21  1  0
 21 22  2  0
 22 23  1  0
 23 24  2  0
 24 19  1  0
 24 25  1  0
 25 26  2  0
 26 17  1  0
 26 12  1  0
M  END
> <assay_chembl_id>
CHEMBL2363708

> <assay_description>
SANGER: Inhibition of human 22RV1 cell growth in a cell viability assay.

> <document_journal>
.

> <molecule_chembl_id>
CHEMBL65

> <standard_value>
9.314

> <IC50_uM>
0.009314

> <Activity>
Yes

> <Canonical_Smiles>
CC[C@@]1(O)C(=O)OCc2c1cc1n(c2=O)Cc2cc3ccccc3nc2-1

$$$$

  SciTegic03142313312D

 59 67  0  0  1  0            999 V2000
    2.3980    5.1974    0.0000 C   0  0
    1.0617    4.5159    0.0000 C   0  0
   -0.2000    5.2900    0.0000 C   0  0  2  0  0  0
   -0.2341    6.7896    0.0000 O   0  0
   -0.2000    4.0900    0.0000 C   0  0
   -1.2300    3.5100    0.0000 C   0  0  2  0  0  0
   -2.2500    4.0900    0.0000 C   0  0
   -2.2500    5.2900    0.0000 N   0  0  3  0  0  0
   -3.9200    5.5000    0.0000 C   0  0
   -5.4100    4.7800    0.0000 C   0  0
   -5.7000    3.1300    0.0000 C   0  0
   -4.9700    1.7900    0.0000 C   0  0
   -6.0100    0.6800    0.0000 N   0  0
   -7.4000    1.3200    0.0000 C   0  0
   -8.8100    0.7400    0.0000 C   0  0
  -10.0200    1.6700    0.0000 C   0  0
   -9.8300    3.1800    0.0000 C   0  0
   -8.4200    3.7700    0.0000 C   0  0
   -7.2000    2.8400    0.0000 C   0  0
   -3.3800    1.2800    0.0000 C   0  0  1  0  0  0
   -4.3011    0.1350    0.0000 C   0  0
   -5.7734    0.4218    0.0000 O   0  0
   -3.8135   -1.2844    0.0000 O   0  0
   -4.7977   -2.4164    0.0000 C   0  0
   -2.3301    0.2513    0.0000 C   0  0
   -2.7110   -1.1720    0.0000 C   0  0
   -1.6165   -2.2180    0.0000 C   0  0
   -0.2693   -1.8150    0.0000 C   0  0
    0.1414   -0.3694    0.0000 C   0  0
   -0.9061    0.6597    0.0000 C   0  0
   -0.5303    2.1129    0.0000 O   0  0
    0.4332    2.3808    0.0000 C   0  0
    0.6269   -3.0200    0.0000 N   0  0
    2.1267   -3.0420    0.0000 C   0  0
   -0.2779   -4.1651    0.0000 C   0  0  1  0  0  0
   -0.0140   -5.6041    0.0000 C   0  0  1  0  0  0
    1.0936   -4.5926    0.0000 O   0  0
    0.2302   -7.0636    0.0000 C   0  0
   -0.5575   -7.6797    0.0000 O   0  0
    1.6218   -7.6255    0.0000 O   0  0
    1.8319   -9.1108    0.0000 C   0  0
   -1.1529   -6.6124    0.0000 C   0  0  2  0  0  0
   -0.8799   -8.0880    0.0000 O   0  0
   -2.0206   -9.0633    0.0000 C   0  0
   -1.8376  -10.0464    0.0000 C   0  0
   -3.4352   -8.5642    0.0000 O   0  0
   -2.5335   -6.1188    0.0000 C   0  0  2  0  0  0
   -2.2630   -7.5946    0.0000 C   0  0
   -3.0242   -8.2431    0.0000 C   0  0
   -3.6287   -7.0542    0.0000 C   0  0
   -5.0406   -6.5494    0.0000 C   0  0
   -5.3459   -4.5824    0.0000 C   0  0
   -4.0445   -3.8623    0.0000 N   0  0  3  0  0  0
   -3.7291   -2.4358    0.0000 C   0  0
   -2.2452   -2.2939    0.0000 C   0  0
   -1.6741   -3.6659    0.0000 C   0  0  2  0  0  0
   -2.8019   -4.6427    0.0000 C   0  0  2  0  0  0
   -1.8700    1.9700    0.0000 C   0  0
   -1.2300    5.8900    0.0000 C   0  0
  1  2  1  0
  2  3  1  0
  3  4  1  1
  3  5  1  0
  6  5  1  1
  6  7  1  0
  8  7  1  4
  8  9  1  0
  9 10  1  0
 10 11  1  0
 11 12  2  0
 12 13  1  0
 13 14  1  0
 14 15  2  0
 15 16  1  0
 16 17  2  0
 17 18  1  0
 18 19  2  0
 19 11  1  0
 19 14  1  0
 12 20  1  0
 20 21  1  1
 21 22  2  0
 21 23  1  0
 23 24  1  0
 20 25  1  0
 25 26  2  0
 26 27  1  0
 27 28  2  0
 28 29  1  0
 29 30  2  0
 30 25  1  0
 30 31  1  0
 31 32  1  0
 28 33  1  0
 33 34  1  0
 35 33  1  1
 35 36  1  0
 36 37  1  6
 36 38  1  0
 38 39  2  0
 38 40  1  0
 40 41  1  0
 36 42  1  0
 42 43  1  6
 43 44  1  0
 44 45  1  0
 44 46  2  0
 42 47  1  0
 47 48  1  1
 48 49  1  0
 47 50  1  0
 50 51  2  0
 51 52  1  0
 53 52  1  4
 53 54  1  0
 54 55  1  0
 56 55  1  6
 56 27  1  0
 56 35  1  0
 56 57  1  0
 57 53  1  6
 57 47  1  0
 20 58  1  0
 58  6  1  0
  8 59  1  0
 59  3  1  0
M  END
> <assay_chembl_id>
CHEMBL2363708

> <assay_description>
SANGER: Inhibition of human 22RV1 cell growth in a cell viability assay.

> <document_journal>
.

> <molecule_chembl_id>
CHEMBL159

> <standard_value>
9.815

> <IC50_uM>
0.009815

> <Activity>
Yes

> <Canonical_Smiles>
CC[C@]1(O)C[C@@H]2CN(CCc3c([nH]c4ccccc34)[C@@](C(=O)OC)(c3cc4c(cc3OC)N(C)[C@H]3[C@@](O)(C(=O)OC)[C@H](OC(C)=O)[C@]5(CC)C=CCN6CC[C@]43[C@@H]65)C2)C1

$$$$

  SciTegic03142313312D

 58 63  0  0  1  0            999 V2000
    2.2495    2.6548    0.0000 C   0  0
    3.6576    2.1380    0.0000 C   0  0
    4.8089    3.0995    0.0000 O   0  0
    3.9139    0.6592    0.0000 O   0  0
    2.7600   -0.3100    0.0000 C   0  0  1  0  0  0
    3.4900    0.9500    0.0000 C   0  0
    4.7600    0.2300    0.0000 O   0  0
    4.0400   -1.0400    0.0000 C   0  0  2  0  0  0
    4.0400   -2.4900    0.0000 C   0  0
    2.7600   -3.2200    0.0000 C   0  0  2  0  0  0
    2.7575   -4.7200    0.0000 O   0  0
    1.4900   -2.4900    0.0000 C   0  0  1  0  0  0
    1.4875   -3.9900    0.0000 C   0  0
    0.2100   -3.2200    0.0000 C   0  0
    0.2075   -4.7200    0.0000 O   0  0
   -1.0600   -2.4900    0.0000 C   0  0  2  0  0  0
   -1.0600   -1.4900    0.0000 O   0  0
   -2.3300   -3.2200    0.0000 C   0  0
   -3.6100   -2.4900    0.0000 C   0  0
   -4.9070   -3.2434    0.0000 C   0  0
   -3.6100   -1.0400    0.0000 C   0  0  1  0  0  0
   -4.9128   -0.2943    0.0000 O   0  0
   -6.2102   -1.0489    0.0000 C   0  0
   -6.2067   -2.0488    0.0000 O   0  0
   -7.5128   -0.3034    0.0000 C   0  0  2  0  0  0
   -7.5181    1.1966    0.0000 O   0  0
   -8.8101   -1.0580    0.0000 C   0  0  1  0  0  0
   -8.8018   -2.5588    0.0000 N   0  0
   -7.4983   -3.3028    0.0000 C   0  0
   -6.6350   -2.7982    0.0000 O   0  0
   -7.4900   -4.8036    0.0000 O   0  0
   -6.1865   -5.5476    0.0000 C   0  0
   -6.1782   -7.0475    0.0000 C   0  0
   -4.8915   -4.7908    0.0000 C   0  0
   -4.8835   -6.2905    0.0000 C   0  0
  -10.1128   -0.3126    0.0000 C   0  0
  -11.4105   -1.0648    0.0000 C   0  0
  -12.7109   -0.3172    0.0000 C   0  0
  -12.7136    1.1828    0.0000 C   0  0
  -11.4159    1.9352    0.0000 C   0  0
  -10.1155    1.1875    0.0000 C   0  0
   -2.3300   -0.3100    0.0000 C   0  0
   -1.0600   -1.0400    0.0000 C   0  0  1  0  0  0
   -1.0600    0.4600    0.0000 O   0  0
    0.2100   -0.3100    0.0000 C   0  0  1  0  0  0
    0.2020    1.1912    0.0000 O   0  0
   -1.1014    1.9354    0.0000 C   0  0
   -2.3966    1.1788    0.0000 O   0  0
   -1.1094    3.4362    0.0000 C   0  0
   -2.4110    4.1820    0.0000 C   0  0
   -2.4160    5.6819    0.0000 C   0  0
   -1.1195    6.4363    0.0000 C   0  0
    0.1820    5.6907    0.0000 C   0  0
    0.1871    4.1907    0.0000 C   0  0
    1.4900   -1.0400    0.0000 C   0  0  2  0  0  0
   -2.0200    0.2800    0.0000 C   0  0
   -0.9882    1.3687    0.0000 C   0  0
   -3.4648    0.6831    0.0000 C   0  0
  1  2  1  0
  2  3  2  0
  2  4  1  0
  5  4  1  1
  5  6  1  0
  6  7  1  0
  8  7  1  6
  8  5  1  0
  8  9  1  0
  9 10  1  0
 10 11  1  6
 10 12  1  0
 12 13  1  6
 12 14  1  0
 14 15  2  0
 14 16  1  0
 16 17  1  1
 16 18  1  0
 18 19  2  0
 19 20  1  0
 19 21  1  0
 21 22  1  1
 22 23  1  0
 23 24  2  0
 23 25  1  0
 25 26  1  1
 25 27  1  0
 27 28  1  1
 28 29  1  0
 29 30  2  0
 29 31  1  0
 31 32  1  0
 32 33  1  0
 32 34  1  0
 32 35  1  0
 27 36  1  0
 36 37  2  0
 37 38  1  0
 38 39  2  0
 39 40  1  0
 40 41  2  0
 41 36  1  0
 21 42  1  0
 42 43  1  0
 43 44  1  1
 43 45  1  0
 45 46  1  1
 46 47  1  0
 47 48  2  0
 47 49  1  0
 49 50  2  0
 50 51  1  0
 51 52  2  0
 52 53  1  0
 53 54  2  0
 54 49  1  0
 55 45  1  6
 55  5  1  0
 55 12  1  0
 43 56  1  0
 56 18  1  0
 56 57  1  0
 56 58  1  0
M  END
> <assay_chembl_id>
CHEMBL2363708

> <assay_description>
SANGER: Inhibition of human 22RV1 cell growth in a cell viability assay.

> <document_journal>
.

> <molecule_chembl_id>
CHEMBL3545252

> <standard_value>
3.15

> <IC50_uM>
0.00315

> <Activity>
Yes

> <RemovedSalts>
H2O
H2O
H2O

> <Canonical_Smiles>
CC(=O)O[C@@]12CO[C@@H]1C[C@H](O)[C@@]1(C)C(=O)[C@H](O)C3=C(C)[C@@H](OC(=O)[C@H](O)[C@@H](NC(=O)OC(C)(C)C)c4ccccc4)C[C@@](O)([C@@H](OC(=O)c4ccccc4)[C@H]21)C3(C)C.O.O.O

$$$$

  SciTegic03142313312D

 33 35  0  0  1  0            999 V2000
    1.2948   -3.7516    0.0000 C   0  0
    2.5951   -3.0039    0.0000 N   0  0
    2.5973   -1.5031    0.0000 C   0  0
    1.2990   -0.7500    0.0000 C   0  0
    1.2990    0.7500    0.0000 C   0  0
    0.0000    1.5000    0.0000 N   0  0
   -1.2990    0.7500    0.0000 C   0  0
   -2.5981    1.5000    0.0000 N   0  0
   -3.8971    0.7500    0.0000 C   0  0
   -5.1962    1.5000    0.0000 N   0  0
   -3.8971   -0.7500    0.0000 N   0  0
   -2.5981   -1.5000    0.0000 C   0  0
   -2.5981   -3.0000    0.0000 N   0  0
   -1.2990   -0.7500    0.0000 C   0  0
    0.0000   -1.5000    0.0000 N   0  0
    3.8933   -3.7570    0.0000 C   0  0
    3.8934   -5.2570    0.0000 C   0  0
    5.1924   -6.0070    0.0000 C   0  0
    6.4915   -5.2571    0.0000 C   0  0
    7.7928   -6.0048    0.0000 C   0  0
    7.7953   -7.5048    0.0000 O   0  0
    9.0914   -5.2526    0.0000 N   0  0
   10.3927   -6.0004    0.0000 C   0  0  1  0  0  0
   11.6914   -5.2481    0.0000 C   0  0
   12.9927   -5.9959    0.0000 C   0  0
   14.2914   -5.2437    0.0000 C   0  0
   15.5920   -5.9910    0.0000 O   0  0
   14.2888   -3.7437    0.0000 O   0  0
   10.3984   -7.5012    0.0000 C   0  0
   11.6998   -8.2471    0.0000 O   0  0
    9.1020   -8.2557    0.0000 O   0  0
    6.4915   -3.7571    0.0000 C   0  0
    5.1925   -3.0070    0.0000 C   0  0
  1  2  1  0
  2  3  1  0
  3  4  1  0
  4  5  2  0
  5  6  1  0
  6  7  2  0
  7  8  1  0
  8  9  2  0
  9 10  1  0
  9 11  1  0
 11 12  2  0
 12 13  1  0
 12 14  1  0
 14  7  1  0
 14 15  2  0
 15  4  1  0
  2 16  1  0
 16 17  2  0
 17 18  1  0
 18 19  2  0
 19 20  1  0
 20 21  2  0
 20 22  1  0
 23 22  1  1
 23 24  1  0
 24 25  1  0
 25 26  1  0
 26 27  2  0
 26 28  1  0
 23 29  1  0
 29 30  2  0
 29 31  1  0
 19 32  1  0
 32 33  2  0
 33 16  1  0
M  END
> <assay_chembl_id>
CHEMBL2363708

> <assay_description>
SANGER: Inhibition of human 22RV1 cell growth in a cell viability assay.

> <document_journal>
.

> <molecule_chembl_id>
CHEMBL34259

> <standard_value>
536.88

> <IC50_uM>
0.53688

> <Activity>
Yes

> <Canonical_Smiles>
CN(Cc1cnc2nc(N)nc(N)c2n1)c1ccc(C(=O)N[C@@H](CCC(=O)O)C(=O)O)cc1

$$$$

  SciTegic03142313312D

 31 34  0  0  0  0            999 V2000
    3.8983   -0.7459    0.0000 C   0  0
    2.6003   -1.4977    0.0000 O   0  0
    1.2990   -0.7500    0.0000 C   0  0
    1.2990    0.7500    0.0000 C   0  0
    0.0000    1.5000    0.0000 C   0  0
    0.0000    3.0000    0.0000 N   0  0
   -1.2991    3.7500    0.0000 C   0  0
   -2.5981    3.0000    0.0000 N   0  0
   -2.5981    1.5000    0.0000 C   0  0
   -3.8994    0.7522    0.0000 N   0  0
   -5.1981    1.5045    0.0000 C   0  0
   -6.4998    0.7590    0.0000 C   0  0
   -7.7962    1.5135    0.0000 C   0  0
   -7.7910    3.0135    0.0000 C   0  0
   -9.0875    3.7680    0.0000 F   0  0
   -6.4894    3.7590    0.0000 C   0  0
   -6.4842    5.2590    0.0000 Cl  0  0
   -5.1930    3.0045    0.0000 C   0  0
   -1.2990    0.7500    0.0000 C   0  0
   -1.2990   -0.7500    0.0000 C   0  0
    0.0000   -1.5000    0.0000 C   0  0
   -0.0031   -3.0008    0.0000 O   0  0
   -1.3039   -3.7494    0.0000 C   0  0
   -1.3070   -5.2502    0.0000 C   0  0
   -2.6078   -5.9988    0.0000 C   0  0
   -2.6109   -7.4996    0.0000 N   0  0
   -3.9099   -8.2497    0.0000 C   0  0
   -3.9099   -9.7497    0.0000 C   0  0
   -2.6109  -10.4997    0.0000 O   0  0
   -1.3119   -9.7497    0.0000 C   0  0
   -1.3118   -8.2497    0.0000 C   0  0
  1  2  1  0
  2  3  1  0
  3  4  2  0
  4  5  1  0
  5  6  2  0
  6  7  1  0
  7  8  2  0
  8  9  1  0
  9 10  1  0
 10 11  1  0
 11 12  2  0
 12 13  1  0
 13 14  2  0
 14 15  1  0
 14 16  1  0
 16 17  1  0
 16 18  2  0
 18 11  1  0
  9 19  2  0
 19  5  1  0
 19 20  1  0
 20 21  2  0
 21  3  1  0
 21 22  1  0
 22 23  1  0
 23 24  1  0
 24 25  1  0
 25 26  1  0
 26 27  1  0
 27 28  1  0
 28 29  1  0
 29 30  1  0
 30 31  1  0
 31 26  1  0
M  END
> <assay_chembl_id>
CHEMBL2363708

> <assay_description>
SANGER: Inhibition of human 22RV1 cell growth in a cell viability assay.

> <document_journal>
.

> <molecule_chembl_id>
CHEMBL939

> <standard_value>
50346.14

> <IC50_uM>
50.34614

> <Activity>
No

> <Canonical_Smiles>
COc1cc2ncnc(Nc3ccc(F)c(Cl)c3)c2cc1OCCCN1CCOCC1

$$$$

  SciTegic03142313312D

 31 33  0  0  0  0            999 V2000
    3.8983   -0.7459    0.0000 C   0  0
    2.6003   -1.4977    0.0000 O   0  0
    1.2990   -0.7500    0.0000 C   0  0
    1.2990    0.7500    0.0000 C   0  0
    0.0000    1.5000    0.0000 C   0  0
    0.0000    3.0000    0.0000 F   0  0
   -1.2990    0.7500    0.0000 C   0  0
   -2.5981    1.5000    0.0000 F   0  0
   -1.2990   -0.7500    0.0000 C   0  0
   -2.5972   -1.5031    0.0000 N   0  0
   -2.5951   -3.0039    0.0000 C   0  0
   -1.2935   -3.7495    0.0000 C   0  0
   -1.2883   -5.2495    0.0000 C   0  0
   -2.5847   -6.0040    0.0000 C   0  0
   -2.5795   -7.5040    0.0000 I   0  0
   -3.8863   -5.2585    0.0000 C   0  0
   -3.8915   -3.7585    0.0000 C   0  0
   -5.1932   -3.0130    0.0000 F   0  0
    0.0000   -1.5000    0.0000 C   0  0
    0.0031   -3.0008    0.0000 N   0  0
    1.3039   -3.7494    0.0000 S   0  0
    1.3015   -2.2494    0.0000 O   0  0
    2.6016   -2.9971    0.0000 O   0  0
    1.3070   -5.2506    0.0000 C   0  0
    2.6081   -5.9988    0.0000 C   0  0
    2.6116   -7.4996    0.0000 C   0  0  3  0  0  0
    1.3141   -8.2523    0.0000 O   0  0
    3.9127   -8.2477    0.0000 C   0  0
    3.9162   -9.7477    0.0000 O   0  0
   -0.0778   -5.1866    0.0000 C   0  0
    0.6747   -6.4843    0.0000 C   0  0
  1  2  1  0
  2  3  1  0
  3  4  2  0
  4  5  1  0
  5  6  1  0
  5  7  2  0
  7  8  1  0
  7  9  1  0
  9 10  1  0
 10 11  1  0
 11 12  2  0
 12 13  1  0
 13 14  2  0
 14 15  1  0
 14 16  1  0
 16 17  2  0
 17 11  1  0
 17 18  1  0
  9 19  2  0
 19  3  1  0
 19 20  1  0
 20 21  1  0
 21 22  2  0
 21 23  2  0
 21 24  1  0
 24 25  1  0
 25 26  1  0
 26 27  1  4
 26 28  1  0
 28 29  1  0
 24 30  1  0
 30 31  1  0
 31 24  1  0
M  END
> <assay_chembl_id>
CHEMBL2363708

> <assay_description>
SANGER: Inhibition of human 22RV1 cell growth in a cell viability assay.

> <document_journal>
.

> <molecule_chembl_id>
CHEMBL3349342

> <standard_value>
32669.05

> <IC50_uM>
32.66905

> <Activity>
No

> <Canonical_Smiles>
COc1cc(F)c(F)c(Nc2ccc(I)cc2F)c1NS(=O)(=O)C1(CC(O)CO)CC1

$$$$

  SciTegic03142313312D

 73 76  0  0  1  0            999 V2000
   -6.3526   -0.4242    0.0000 C   0  0
   -5.1674   -1.3437    0.0000 O   0  0
   -5.3700   -2.8300    0.0000 C   0  0  1  0  0  0
   -6.8600   -3.4400    0.0000 C   0  0
   -7.8600   -2.2400    0.0000 C   0  0  2  0  0  0
   -9.2500   -2.5000    0.0000 C   0  0
  -10.1800   -1.4400    0.0000 C   0  0
   -9.7100    0.0100    0.0000 C   0  0  1  0  0  0
  -10.7377    1.1027    0.0000 C   0  0
   -8.0800    0.4300    0.0000 C   0  0  1  0  0  0
   -8.4778    1.8763    0.0000 O   0  0
   -7.2300   -0.9300    0.0000 O   0  0
   -6.6100    0.8600    0.0000 C   0  0
   -5.5855   -0.2356    0.0000 O   0  0
   -6.1000    2.2500    0.0000 C   0  0
   -7.0129    3.4402    0.0000 O   0  0
   -4.5400    2.3900    0.0000 N   0  0
   -5.4800    3.8300    0.0000 C   0  0
   -4.8400    5.2900    0.0000 C   0  0
   -3.4600    5.5000    0.0000 C   0  0
   -2.6400    4.4900    0.0000 C   0  0
   -3.1200    3.1200    0.0000 C   0  0  1  0  0  0
   -1.9000    2.2900    0.0000 C   0  0
   -1.8545    0.7907    0.0000 O   0  0
   -0.7100    3.2100    0.0000 O   0  0
    0.6400    2.7300    0.0000 C   0  0  2  0  0  0
    1.7942    3.6872    0.0000 C   0  0  2  0  0  0
    3.2010    3.1666    0.0000 C   0  0
    1.5420    5.1667    0.0000 C   0  0
    2.6966    6.1256    0.0000 C   0  0  2  0  0  0
    2.4467    7.6047    0.0000 C   0  0
    3.6025    8.5607    0.0000 C   0  0
    5.0084    8.0377    0.0000 C   0  0  1  0  0  0
    6.1630    8.9966    0.0000 O   0  0
    5.9107   10.4760    0.0000 C   0  0
    4.5039   10.9966    0.0000 O   0  0
    7.0653   11.4350    0.0000 C   0  0
    8.2196   12.3928    0.0000 C   0  0
    6.8130   12.9144    0.0000 C   0  0
    7.9669   13.8728    0.0000 O   0  0
    8.4727   10.9141    0.0000 C   0  0
    9.6276   11.8714    0.0000 O   0  0
    5.2584    6.5586    0.0000 C   0  0  2  0  0  0
    6.6661    6.0382    0.0000 O   0  0
    7.8206    6.9959    0.0000 C   0  0
    4.1025    5.6026    0.0000 C   0  0
    0.8000    1.1200    0.0000 C   0  0
    2.0600    0.3500    0.0000 C   0  0
    1.8870   -1.1400    0.0000 O   0  0
    3.4300    0.8000    0.0000 C   0  0  2  0  0  0
    3.8662    2.2352    0.0000 C   0  0
    4.3600   -0.3900    0.0000 C   0  0
    5.8000   -0.4000    0.0000 C   0  0
    6.6151    0.8592    0.0000 C   0  0
    6.4400   -1.8000    0.0000 C   0  0  1  0  0  0
    7.9345   -1.9281    0.0000 O   0  0
    5.5100   -3.1600    0.0000 C   0  0  1  0  0  0
    4.0182   -3.2790    0.0000 O   0  0
    3.1659   -2.0447    0.0000 C   0  0
    6.5100   -4.2800    0.0000 C   0  0
    7.9504   -3.8613    0.0000 O   0  0
    6.2500   -5.8600    0.0000 C   0  0  2  0  0  0
    7.5042   -6.6827    0.0000 C   0  0
    4.8700   -6.7500    0.0000 C   0  0
    3.3400   -6.2300    0.0000 C   0  0  2  0  0  0
    2.3025   -7.3134    0.0000 C   0  0
    2.7800   -4.7900    0.0000 C   0  0
    1.1200   -4.8600    0.0000 C   0  0
    0.1200   -3.6900    0.0000 C   0  0
   -1.4100   -4.1500    0.0000 C   0  0
   -2.6300   -3.1700    0.0000 C   0  0
   -4.1200   -3.7800    0.0000 C   0  0
   -4.3154   -5.2672    0.0000 C   0  0
  1  2  1  0
  3  2  1  6
  3  4  1  0
  5  4  1  6
  5  6  1  0
  6  7  1  0
  7  8  1  0
  8  9  1  1
  8 10  1  0
 10 11  1  1
 10 12  1  0
 12  5  1  0
 10 13  1  0
 13 14  2  0
 13 15  1  0
 15 16  2  0
 15 17  1  0
 17 18  1  0
 18 19  1  0
 19 20  1  0
 20 21  1  0
 22 21  1  1
 22 17  1  0
 22 23  1  0
 23 24  2  0
 23 25  1  0
 26 25  1  6
 26 27  1  0
 27 28  1  1
 27 29  1  0
 30 29  1  6
 30 31  1  0
 31 32  1  0
 32 33  1  0
 33 34  1  1
 34 35  1  0
 35 36  2  0
 35 37  1  0
 37 38  1  0
 37 39  1  0
 39 40  1  0
 37 41  1  0
 41 42  1  0
 33 43  1  0
 43 44  1  6
 44 45  1  0
 43 46  1  0
 46 30  1  0
 26 47  1  0
 47 48  1  0
 48 49  2  0
 48 50  1  0
 50 51  1  6
 50 52  1  0
 52 53  2  0
 53 54  1  0
 53 55  1  0
 55 56  1  1
 55 57  1  0
 57 58  1  6
 58 59  1  0
 57 60  1  0
 60 61  2  0
 60 62  1  0
 62 63  1  6
 62 64  1  0
 64 65  1  0
 65 66  1  6
 65 67  1  0
 67 68  2  0
 68 69  1  0
 69 70  2  0
 70 71  1  0
 71 72  2  0
 72  3  1  0
 72 73  1  0
M  END
> <assay_chembl_id>
CHEMBL2363708

> <assay_description>
SANGER: Inhibition of human 22RV1 cell growth in a cell viability assay.

> <document_journal>
.

> <molecule_chembl_id>
CHEMBL1201182

> <standard_value>
211.94

> <IC50_uM>
0.21194

> <Activity>
Yes

> <Canonical_Smiles>
CO[C@H]1C[C@@H]2CC[C@@H](C)[C@@](O)(O2)C(=O)C(=O)N2CCCC[C@H]2C(=O)O[C@H]([C@H](C)C[C@@H]2CC[C@@H](OC(=O)C(C)(CO)CO)[C@H](OC)C2)CC(=O)[C@H](C)/C=C(\C)[C@@H](O)[C@@H](OC)C(=O)[C@H](C)C[C@H](C)/C=C/C=C/C
=C/1C

$$$$

  SciTegic03142313312D

 36 39  0  0  0  0            999 V2000
    3.8794    3.7535    0.0000 C   0  0
    5.1821    3.0099    0.0000 O   0  0
    5.1903    1.5091    0.0000 C   0  0
    3.8939    0.7546    0.0000 C   0  0
    3.8990   -0.7455    0.0000 C   0  0
    2.6003   -1.4977    0.0000 N   0  0
    1.2990   -0.7500    0.0000 C   0  0
    1.2990    0.7500    0.0000 C   0  0
    2.5988    1.5004    0.0000 C   0  0
    3.8978    2.2504    0.0000 N   0  0
    0.0000    1.5000    0.0000 C   0  0
   -1.2990    0.7500    0.0000 N   0  0
   -1.2990   -0.7500    0.0000 C   0  0
   -2.5981   -1.5000    0.0000 C   0  0
   -2.5981   -3.0000    0.0000 C   0  0
   -3.8994   -3.7478    0.0000 O   0  0
   -5.1981   -2.9955    0.0000 C   0  0
   -6.4993   -3.7433    0.0000 C   0  0
   -7.7980   -2.9910    0.0000 C   0  0
   -9.0993   -3.7387    0.0000 N   0  0
  -10.3984   -2.9888    0.0000 C   0  0
  -11.6975   -3.7388    0.0000 C   0  0
  -11.6975   -5.2388    0.0000 N   0  0
  -12.9965   -5.9887    0.0000 C   0  0
  -10.3985   -5.9888    0.0000 C   0  0
   -9.0994   -5.2388    0.0000 C   0  0
   -1.2990   -3.7500    0.0000 C   0  0
   -1.2959   -5.2508    0.0000 O   0  0
    0.0042   -5.9990    0.0000 C   0  0
    0.0000   -3.0000    0.0000 C   0  0
    0.0000   -1.5000    0.0000 C   0  0
    5.2007   -1.4909    0.0000 C   0  0
    5.2059   -2.9909    0.0000 Cl  0  0
    6.4972   -0.7364    0.0000 C   0  0
    6.4920    0.7636    0.0000 C   0  0
    7.7884    1.5180    0.0000 Cl  0  0
  1  2  1  0
  2  3  1  0
  3  4  2  0
  4  5  1  0
  5  6  1  0
  6  7  1  0
  7  8  2  0
  8  9  1  0
  9 10  3  0
  8 11  1  0
 11 12  2  0
 12 13  1  0
 13 14  2  0
 14 15  1  0
 15 16  1  0
 16 17  1  0
 17 18  1  0
 18 19  1  0
 19 20  1  0
 20 21  1  0
 21 22  1  0
 22 23  1  0
 23 24  1  0
 23 25  1  0
 25 26  1  0
 26 20  1  0
 15 27  2  0
 27 28  1  0
 28 29  1  0
 27 30  1  0
 30 31  2  0
 31  7  1  0
 31 13  1  0
  5 32  2  0
 32 33  1  0
 32 34  1  0
 34 35  2  0
 35  3  1  0
 35 36  1  0
M  END
> <assay_chembl_id>
CHEMBL2363708

> <assay_description>
SANGER: Inhibition of human 22RV1 cell growth in a cell viability assay.

> <document_journal>
.

> <molecule_chembl_id>
CHEMBL288441

> <standard_value>
60049.91

> <IC50_uM>
60.04991

> <Activity>
No

> <Canonical_Smiles>
COc1cc(Nc2c(C#N)cnc3cc(OCCCN4CCN(C)CC4)c(OC)cc23)c(Cl)cc1Cl

$$$$

  SciTegic03142313312D

 29 31  0  0  0  0            999 V2000
    2.6030   -2.9977    0.0000 N   0  0
    2.6003   -1.4977    0.0000 C   0  0
    3.8983   -0.7459    0.0000 O   0  0
    1.2990   -0.7500    0.0000 C   0  0
    1.2990    0.7500    0.0000 C   0  0
    0.0000    1.5000    0.0000 C   0  0
   -1.2990    0.7500    0.0000 C   0  0
   -2.6003    1.4977    0.0000 N   0  0
   -2.6061    2.9986    0.0000 C   0  0
   -1.3096    3.7531    0.0000 N   0  0
   -3.9075    3.7444    0.0000 O   0  0
   -3.8990    0.7455    0.0000 C   0  0
   -5.2007    1.4909    0.0000 C   0  0
   -5.2060    2.9909    0.0000 F   0  0
   -6.4972    0.7364    0.0000 C   0  0
   -6.4920   -0.7636    0.0000 C   0  0
   -5.1903   -1.5091    0.0000 C   0  0
   -3.8939   -0.7546    0.0000 C   0  0
   -2.5923   -1.5001    0.0000 F   0  0
   -1.2990   -0.7500    0.0000 N   0  0
    0.0000   -1.5000    0.0000 C   0  0
    0.0000   -3.0008    0.0000 C   0  0
    1.3002   -3.7488    0.0000 C   0  0
    1.3026   -5.2488    0.0000 C   0  0
    0.0048   -6.0009    0.0000 C   0  0
    0.0071   -7.5009    0.0000 F   0  0
   -1.2955   -5.2529    0.0000 C   0  0
   -1.2978   -3.7529    0.0000 C   0  0
   -2.5981   -3.0050    0.0000 F   0  0
  1  2  1  0
  2  3  2  0
  2  4  1  0
  4  5  2  0
  5  6  1  0
  6  7  2  0
  7  8  1  0
  8  9  1  0
  9 10  1  0
  9 11  2  0
  8 12  1  0
 12 13  2  0
 13 14  1  0
 13 15  1  0
 15 16  2  0
 16 17  1  0
 17 18  2  0
 18 12  1  0
 18 19  1  0
  7 20  1  0
 20 21  2  0
 21  4  1  0
 21 22  1  0
 22 23  2  0
 23 24  1  0
 24 25  2  0
 25 26  1  0
 25 27  1  0
 27 28  2  0
 28 22  1  0
 28 29  1  0
M  END
> <assay_chembl_id>
CHEMBL2363708

> <assay_description>
SANGER: Inhibition of human 22RV1 cell growth in a cell viability assay.

> <document_journal>
.

> <molecule_chembl_id>
CHEMBL1090090

> <standard_value>
54681.26

> <IC50_uM>
54.68126

> <Activity>
No

> <Canonical_Smiles>
NC(=O)c1ccc(N(C(N)=O)c2c(F)cccc2F)nc1-c1ccc(F)cc1F

$$$$

  SciTegic03142313312D

 28 31  0  0  0  0            999 V2000
   -1.1509   -2.6325    0.0000 C   0  0
    0.3114   -2.9665    0.0000 C   0  0
    0.7960   -4.3861    0.0000 C   0  0
    1.8032   -3.1233    0.0000 C   0  0
    2.4133   -1.7530    0.0000 N   0  0
    1.2990   -0.7500    0.0000 C   0  0
    1.2990    0.7500    0.0000 C   0  0
    0.0000    1.5000    0.0000 C   0  0
   -0.0031    3.0008    0.0000 N   0  0
   -1.3039    3.7494    0.0000 C   0  0
   -2.6017    2.9971    0.0000 O   0  0
   -1.3070    5.2502    0.0000 C   0  0
   -0.0080    6.0003    0.0000 C   0  0
   -0.0080    7.5003    0.0000 C   0  0
   -1.3071    8.2503    0.0000 C   0  0
   -2.6061    7.5003    0.0000 N   0  0
   -2.6061    6.0003    0.0000 C   0  0
   -3.9074    5.2525    0.0000 N   0  0
   -5.2060    6.0048    0.0000 C   0  0
   -6.5073    5.2571    0.0000 C   0  0
   -7.8064    6.0070    0.0000 C   0  0
   -9.1055    5.2571    0.0000 C   0  0
   -9.1055    3.7571    0.0000 N   0  0
   -7.8065    3.0070    0.0000 C   0  0
   -6.5075    3.7570    0.0000 C   0  0
   -1.2990    0.7500    0.0000 C   0  0
   -1.2990   -0.7500    0.0000 C   0  0
    0.0000   -1.5000    0.0000 C   0  0
  1  2  1  0
  2  3  1  0
  2  4  1  0
  4  5  1  0
  5  6  1  0
  6  7  2  0
  7  8  1  0
  8  9  1  0
  9 10  1  0
 10 11  2  0
 10 12  1  0
 12 13  2  0
 13 14  1  0
 14 15  2  0
 15 16  1  0
 16 17  2  0
 17 12  1  0
 17 18  1  0
 18 19  1  0
 19 20  1  0
 20 21  2  0
 21 22  1  0
 22 23  2  0
 23 24  1  0
 24 25  2  0
 25 20  1  0
  8 26  2  0
 26 27  1  0
 27 28  2  0
 28  6  1  0
 28  2  1  0
M  END
> <assay_chembl_id>
CHEMBL2363708

> <assay_description>
SANGER: Inhibition of human 22RV1 cell growth in a cell viability assay.

> <document_journal>
.

> <molecule_chembl_id>
CHEMBL572881

> <standard_value>
98315.24

> <IC50_uM>
98.31524

> <Activity>
No

> <Canonical_Smiles>
CC1(C)CNc2cc(NC(=O)c3cccnc3NCc3ccncc3)ccc21

$$$$

  SciTegic03142313312D

 27 28  0  0  0  0            999 V2000
    5.1830  -10.5134    0.0000 C   0  0
    6.4833   -9.7656    0.0000 N   0  0
    6.4855   -8.2648    0.0000 N   0  0
    5.1873   -7.5117    0.0000 C   0  0
    3.8869   -8.2595    0.0000 O   0  0
    5.1894   -6.0109    0.0000 C   0  0
    3.8912   -5.2578    0.0000 C   0  0
    2.5909   -6.0056    0.0000 O   0  0
    3.8933   -3.7570    0.0000 N   0  0
    2.5951   -3.0039    0.0000 N   0  0
    1.2948   -3.7516    0.0000 C   0  0
    2.5973   -1.5031    0.0000 C   0  0
    3.8976   -0.7553    0.0000 S   0  0
    1.2990   -0.7500    0.0000 C   0  0
    1.2990    0.7500    0.0000 C   0  0
    0.0000    1.5000    0.0000 C   0  0
   -1.2990    0.7500    0.0000 C   0  0
   -1.2990   -0.7500    0.0000 C   0  0
    0.0000   -1.5000    0.0000 C   0  0
    7.7815  -10.5187    0.0000 C   0  0
    9.0819   -9.7710    0.0000 S   0  0
    7.7794  -12.0195    0.0000 C   0  0
    9.0758  -12.7741    0.0000 C   0  0
    9.0706  -14.2741    0.0000 C   0  0
    7.7690  -15.0196    0.0000 C   0  0
    6.4726  -14.2651    0.0000 C   0  0
    6.4778  -12.7651    0.0000 C   0  0
  1  2  1  0
  2  3  1  0
  3  4  1  0
  4  5  2  0
  4  6  1  0
  6  7  1  0
  7  8  2  0
  7  9  1  0
  9 10  1  0
 10 11  1  0
 10 12  1  0
 12 13  2  0
 12 14  1  0
 14 15  2  0
 15 16  1  0
 16 17  2  0
 17 18  1  0
 18 19  2  0
 19 14  1  0
  2 20  1  0
 20 21  2  0
 20 22  1  0
 22 23  2  0
 23 24  1  0
 24 25  2  0
 25 26  1  0
 26 27  2  0
 27 22  1  0
M  END
> <assay_chembl_id>
CHEMBL2363708

> <assay_description>
SANGER: Inhibition of human 22RV1 cell growth in a cell viability assay.

> <document_journal>
.

> <molecule_chembl_id>
CHEMBL1972860

> <standard_value>
11.3

> <IC50_uM>
0.0113

> <Activity>
Yes

> <Canonical_Smiles>
CN(NC(=O)CC(=O)NN(C)C(=S)c1ccccc1)C(=S)c1ccccc1

$$$$

  SciTegic03142313312D

 34 37  0  0  1  0            999 V2000
   10.3996   -1.4837    0.0000 C   0  0
    9.0990   -0.7364    0.0000 N   0  0
    9.0964    0.7636    0.0000 C   0  0
    7.8003   -1.4887    0.0000 C   0  0
    6.4990   -0.7409    0.0000 C   0  0
    5.2003   -1.4932    0.0000 C   0  0
    3.8990   -0.7455    0.0000 C   0  0
    3.8964    0.7545    0.0000 O   0  0
    2.6003   -1.4977    0.0000 N   0  0
    1.2990   -0.7500    0.0000 C   0  0
    1.2990    0.7500    0.0000 C   0  0
    0.0000    1.5000    0.0000 C   0  0
    0.0000    3.0000    0.0000 C   0  0
    1.2982    3.7531    0.0000 N   0  0
    1.2960    5.2539    0.0000 C   0  0
    2.5925    6.0085    0.0000 C   0  0
    2.5873    7.5085    0.0000 C   0  0
    1.2856    8.2540    0.0000 C   0  0
    1.2804    9.7540    0.0000 F   0  0
   -0.0108    7.4995    0.0000 C   0  0
   -1.3124    8.2450    0.0000 Cl  0  0
   -0.0056    5.9995    0.0000 C   0  0
   -1.2991    3.7500    0.0000 N   0  0
   -2.5981    3.0000    0.0000 C   0  0
   -2.5981    1.5000    0.0000 N   0  0
   -1.2990    0.7500    0.0000 C   0  0
   -1.2990   -0.7500    0.0000 C   0  0
    0.0000   -1.5000    0.0000 C   0  0
   -0.0031   -3.0008    0.0000 O   0  0
   -1.3039   -3.7494    0.0000 C   0  0  1  0  0  0
   -1.4469   -5.2298    0.0000 C   0  0
   -2.9152   -5.5365    0.0000 C   0  0
   -3.6607   -4.2349    0.0000 O   0  0
   -2.6531   -3.1237    0.0000 C   0  0
  1  2  1  0
  2  3  1  0
  2  4  1  0
  4  5  1  0
  5  6  2  0
  6  7  1  0
  7  8  2  0
  7  9  1  0
  9 10  1  0
 10 11  2  0
 11 12  1  0
 12 13  2  0
 13 14  1  0
 14 15  1  0
 15 16  2  0
 16 17  1  0
 17 18  2  0
 18 19  1  0
 18 20  1  0
 20 21  1  0
 20 22  2  0
 22 15  1  0
 13 23  1  0
 23 24  2  0
 24 25  1  0
 25 26  2  0
 26 12  1  0
 26 27  1  0
 27 28  2  0
 28 10  1  0
 28 29  1  0
 30 29  1  1
 30 31  1  0
 31 32  1  0
 32 33  1  0
 33 34  1  0
 34 30  1  0
M  END
> <assay_chembl_id>
CHEMBL2363708

> <assay_description>
SANGER: Inhibition of human 22RV1 cell growth in a cell viability assay.

> <document_journal>
.

> <molecule_chembl_id>
CHEMBL1173655

> <standard_value>
34175.36

> <IC50_uM>
34.17536

> <Activity>
No

> <Canonical_Smiles>
CN(C)C/C=C/C(=O)Nc1cc2c(Nc3ccc(F)c(Cl)c3)ncnc2cc1O[C@H]1CCOC1

$$$$

  SciTegic03142313312D

 34 37  0  0  0  0            999 V2000
    9.0964    0.7636    0.0000 O   0  0
    9.0990   -0.7364    0.0000 C   0  0
    7.8003   -1.4887    0.0000 N   0  0
    6.4990   -0.7409    0.0000 C   0  0
    5.2003   -1.4932    0.0000 C   0  0
    3.8990   -0.7455    0.0000 C   0  0
    2.6003   -1.4977    0.0000 N   0  0
    1.2990   -0.7500    0.0000 C   0  0
    1.2990    0.7500    0.0000 N   0  0
    0.0000    1.5000    0.0000 C   0  0
   -0.0031    3.0008    0.0000 N   0  0
   -1.3039    3.7494    0.0000 C   0  0
   -1.3092    5.2494    0.0000 C   0  0
   -2.6108    5.9949    0.0000 C   0  0
   -3.9073    5.2404    0.0000 C   0  0
   -3.9021    3.7404    0.0000 C   0  0
   -5.1977    2.9828    0.0000 N   0  0
   -5.1903    1.4820    0.0000 C   0  0
   -3.8874    0.7388    0.0000 O   0  0
   -6.4859    0.7245    0.0000 N   0  0
   -6.6187   -0.7569    0.0000 C   0  0
   -8.0848   -1.0738    0.0000 C   0  0
   -8.8393    0.2226    0.0000 C   0  0
   -7.8395    1.3408    0.0000 C   0  0
   -2.6005    2.9949    0.0000 C   0  0
   -1.2990    0.7500    0.0000 N   0  0
   -1.2990   -0.7500    0.0000 C   0  0
    0.0000   -1.5000    0.0000 C   0  0
    0.0000   -3.0000    0.0000 I   0  0
   10.4003   -1.4841    0.0000 C   0  0
   11.7517   -0.8631    0.0000 C   0  0
   12.7554   -1.9778    0.0000 C   0  0
   12.0054   -3.2769    0.0000 C   0  0
   10.5381   -2.9650    0.0000 S   0  0
  1  2  2  0
  2  3  1  0
  3  4  1  0
  4  5  1  0
  5  6  1  0
  6  7  1  0
  7  8  1  0
  8  9  2  0
  9 10  1  0
 10 11  1  0
 11 12  1  0
 12 13  2  0
 13 14  1  0
 14 15  2  0
 15 16  1  0
 16 17  1  0
 17 18  1  0
 18 19  2  0
 18 20  1  0
 20 21  1  0
 21 22  1  0
 22 23  1  0
 23 24  1  0
 24 20  1  0
 16 25  2  0
 25 12  1  0
 10 26  2  0
 26 27  1  0
 27 28  2  0
 28  8  1  0
 28 29  1  0
  2 30  1  0
 30 31  2  0
 31 32  1  0
 32 33  2  0
 33 34  1  0
 34 30  1  0
M  END
> <assay_chembl_id>
CHEMBL2363708

> <assay_description>
SANGER: Inhibition of human 22RV1 cell growth in a cell viability assay.

> <document_journal>
.

> <molecule_chembl_id>
CHEMBL577784

> <standard_value>
22876.22

> <IC50_uM>
22.87622

> <Activity>
No

> <Canonical_Smiles>
O=C(NCCCNc1nc(Nc2cccc(NC(=O)N3CCCC3)c2)ncc1I)c1cccs1

$$$$

  SciTegic03142313312D

 26 30  0  0  0  0            999 V2000
    3.1882    2.6402    0.0000 O   0  0
    2.7248    1.2135    0.0000 C   0  0
    3.6065    0.0000    0.0000 N   0  0
    2.7248   -1.2135    0.0000 C   0  0
    3.1882   -2.6401    0.0000 O   0  0
    1.2990   -0.7500    0.0000 C   0  0
    1.2990    0.7500    0.0000 C   0  0
    0.0000    1.5000    0.0000 C   0  0
    0.0000    3.0008    0.0000 C   0  0
   -1.3002    3.7488    0.0000 C   0  0
   -1.3026    5.2488    0.0000 C   0  0
   -0.0048    6.0009    0.0000 C   0  0
    1.2954    5.2529    0.0000 C   0  0
    1.2978    3.7529    0.0000 C   0  0
    2.5981    3.0050    0.0000 Cl  0  0
   -1.2990    0.7500    0.0000 C   0  0
   -1.2990   -0.7500    0.0000 C   0  0
   -2.4133   -1.7530    0.0000 N   0  0
   -1.8032   -3.1233    0.0000 C   0  0
   -2.4134   -4.4924    0.0000 C   0  0
   -1.5318   -5.7059    0.0000 C   0  0
   -0.0400   -5.5491    0.0000 C   0  0
    0.8417   -6.7626    0.0000 O   0  0
    0.5701   -4.1788    0.0000 C   0  0
   -0.3114   -2.9665    0.0000 C   0  0
    0.0000   -1.5000    0.0000 C   0  0
  1  2  2  0
  2  3  1  0
  3  4  1  0
  4  5  2  0
  4  6  1  0
  6  7  2  0
  7  2  1  0
  7  8  1  0
  8  9  1  0
  9 10  2  0
 10 11  1  0
 11 12  2  0
 12 13  1  0
 13 14  2  0
 14  9  1  0
 14 15  1  0
  8 16  2  0
 16 17  1  0
 17 18  1  0
 18 19  1  0
 19 20  2  0
 20 21  1  0
 21 22  2  0
 22 23  1  0
 22 24  1  0
 24 25  2  0
 25 19  1  0
 25 26  1  0
 26  6  1  0
 26 17  2  0
M  END
> <assay_chembl_id>
CHEMBL2363708

> <assay_description>
SANGER: Inhibition of human 22RV1 cell growth in a cell viability assay.

> <document_journal>
.

> <molecule_chembl_id>
CHEMBL379975

> <standard_value>
40483.04

> <IC50_uM>
40.48304

> <Activity>
No

> <Canonical_Smiles>
O=C1NC(=O)c2c1c(-c1ccccc1Cl)cc1[nH]c3ccc(O)cc3c21

$$$$

  SciTegic03142313312D

 31 36  0  0  0  0            999 V2000
    6.4878   -5.2574    0.0000 N   0  0
    6.4934   -3.7574    0.0000 C   0  0
    5.1945   -3.0045    0.0000 C   0  0
    5.1969   -1.5045    0.0000 C   0  0
    3.8991   -0.7525    0.0000 C   0  0
    2.5987   -1.5004    0.0000 C   0  0
    1.2990   -0.7500    0.0000 C   0  0
    1.2990    0.7500    0.0000 N   0  0
    0.0000    1.5000    0.0000 C   0  0
    0.0000    3.0000    0.0000 C   0  0
   -1.2991    3.7500    0.0000 C   0  0
   -2.5981    3.0000    0.0000 N   0  0
   -4.0238    3.4635    0.0000 C   0  0
   -4.4873    4.8901    0.0000 O   0  0
   -4.9055    2.2500    0.0000 N   0  0
   -4.0238    1.0365    0.0000 N   0  0
   -2.5981    1.5000    0.0000 C   0  0
   -1.2990    0.7500    0.0000 C   0  0
   -1.2990   -0.7500    0.0000 C   0  0
    0.0000   -1.5000    0.0000 C   0  0
    0.0000   -3.0008    0.0000 C   0  0
   -1.2978   -3.7529    0.0000 C   0  0
   -1.2955   -5.2529    0.0000 C   0  0
    0.0048   -6.0009    0.0000 C   0  0
    1.3026   -5.2488    0.0000 C   0  0
    1.3002   -3.7488    0.0000 C   0  0
    2.5965   -3.0004    0.0000 C   0  0
    3.8943   -3.7525    0.0000 C   0  0
    6.8046   -2.3560    0.0000 C   0  0
    8.2524   -2.7481    0.0000 C   0  0
    7.8603   -4.1959    0.0000 C   0  0
  1  2  1  0
  2  3  1  0
  3  4  2  0
  4  5  1  0
  5  6  2  0
  6  7  1  0
  7  8  2  0
  8  9  1  0
  9 10  1  0
 10 11  2  0
 11 12  1  0
 12 13  1  0
 13 14  2  0
 13 15  1  0
 15 16  1  0
 16 17  2  0
 17 12  1  0
 17 18  1  0
 18  9  2  0
 18 19  1  0
 19 20  2  0
 20  7  1  0
 20 21  1  0
 21 22  2  0
 22 23  1  0
 23 24  2  0
 24 25  1  0
 25 26  2  0
 26 21  1  0
  6 27  1  0
 27 28  2  0
 28  3  1  0
  2 29  1  0
 29 30  1  0
 30 31  1  0
 31  2  1  0
M  END
> <assay_chembl_id>
CHEMBL2363708

> <assay_description>
SANGER: Inhibition of human 22RV1 cell growth in a cell viability assay.

> <document_journal>
.

> <molecule_chembl_id>
CHEMBL1079175

> <standard_value>
21568.54

> <IC50_uM>
21.56854

> <Activity>
No

> <Canonical_Smiles>
NC1(c2ccc(-c3nc4ccn5c(=O)[nH]nc5c4cc3-c3ccccc3)cc2)CCC1

$$$$

  SciTegic03142313312D

 36 41  0  0  0  0            999 V2000
   -0.6923   -4.0811    0.0000 C   0  0
    0.3114   -2.9665    0.0000 N   0  0
    1.8032   -3.1233    0.0000 C   0  0
    2.5532   -4.4223    0.0000 O   0  0
    2.4133   -1.7530    0.0000 N   0  0
    3.8813   -1.4408    0.0000 C   0  0
    4.9619   -2.4739    0.0000 C   0  0
    6.4015   -2.0524    0.0000 C   0  0
    6.7561   -0.5949    0.0000 C   0  0
    8.1965   -0.1731    0.0000 C   0  0
    8.5507    1.2845    0.0000 C   0  0
    9.6358    0.2491    0.0000 C   0  0
    9.2826   -1.2089    0.0000 C   0  0
   10.3681   -2.2441    0.0000 N   0  0
    5.6713    0.4410    0.0000 C   0  0
    4.2318    0.0194    0.0000 C   0  0
    1.2990   -0.7500    0.0000 C   0  0
    1.2990    0.7500    0.0000 C   0  0
    2.5981    1.5000    0.0000 C   0  0
    2.5981    3.0000    0.0000 C   0  0
    3.8977    3.7504    0.0000 C   0  0
    5.1981    3.0025    0.0000 C   0  0
    6.4959    3.7546    0.0000 N   0  0
    6.4935    5.2546    0.0000 C   0  0
    7.7914    6.0067    0.0000 C   0  0
    7.7890    7.5067    0.0000 C   0  0
    6.4887    8.2546    0.0000 C   0  0
    5.1909    7.5025    0.0000 C   0  0
    5.1933    6.0025    0.0000 C   0  0
    3.8954    5.2505    0.0000 C   0  0
    1.2990    3.7500    0.0000 C   0  0
    0.0000    3.0000    0.0000 C   0  0
    0.0000    1.5000    0.0000 C   0  0
   -1.2990    0.7500    0.0000 N   0  0
   -1.2990   -0.7500    0.0000 C   0  0
    0.0000   -1.5000    0.0000 C   0  0
  1  2  1  0
  2  3  1  0
  3  4  2  0
  3  5  1  0
  5  6  1  0
  6  7  2  0
  7  8  1  0
  8  9  2  0
  9 10  1  0
 10 11  1  0
 10 12  1  0
 10 13  1  0
 13 14  3  0
  9 15  1  0
 15 16  2  0
 16  6  1  0
  5 17  1  0
 17 18  2  0
 18 19  1  0
 19 20  2  0
 20 21  1  0
 21 22  2  0
 22 23  1  0
 23 24  2  0
 24 25  1  0
 25 26  2  0
 26 27  1  0
 27 28  2  0
 28 29  1  0
 29 24  1  0
 29 30  2  0
 30 21  1  0
 20 31  1  0
 31 32  2  0
 32 33  1  0
 33 18  1  0
 33 34  2  0
 34 35  1  0
 35 36  2  0
 36 17  1  0
 36  2  1  0
M  END
> <assay_chembl_id>
CHEMBL2363708

> <assay_description>
SANGER: Inhibition of human 22RV1 cell growth in a cell viability assay.

> <document_journal>
.

> <molecule_chembl_id>
CHEMBL1879463

> <standard_value>
49.09

> <IC50_uM>
0.04909

> <Activity>
Yes

> <Canonical_Smiles>
Cn1c(=O)n(-c2ccc(C(C)(C)C#N)cc2)c2c3cc(-c4cnc5ccccc5c4)ccc3ncc21

$$$$

  SciTegic03142313312D

 34 38  0  0  1  0            999 V2000
    7.7938   -3.0046    0.0000 C   0  0
    6.4946   -3.7543    0.0000 O   0  0
    5.1945   -3.0045    0.0000 C   0  0
    5.1969   -1.5045    0.0000 C   0  0
    3.8991   -0.7525    0.0000 C   0  0
    2.5987   -1.5004    0.0000 C   0  0
    1.2990   -0.7500    0.0000 C   0  0
    1.2990    0.7500    0.0000 C   0  0
    0.0000    1.5000    0.0000 C   0  0
   -1.2990    0.7500    0.0000 C   0  0
   -2.5981    1.5000    0.0000 C   0  0
   -2.5981    3.0007    0.0000 N   0  0
   -3.8983    3.7488    0.0000 C   0  0
   -3.9007    5.2488    0.0000 C   0  0
   -2.6029    6.0009    0.0000 O   0  0
   -1.3026    5.2529    0.0000 C   0  0
   -1.3003    3.7529    0.0000 C   0  0  2  0  0  0
    0.0000    3.0050    0.0000 C   0  0
   -3.8971    0.7500    0.0000 N   0  0
   -3.8971   -0.7500    0.0000 C   0  0
   -5.1968   -1.5004    0.0000 N   0  0
   -5.1945   -3.0005    0.0000 C   0  0
   -6.4924   -3.7525    0.0000 C   0  0
   -7.7926   -3.0046    0.0000 O   0  0
   -7.7950   -1.5046    0.0000 C   0  0
   -6.4971   -0.7525    0.0000 C   0  0  2  0  0  0
   -6.4996    0.7475    0.0000 C   0  0
   -2.5981   -1.5000    0.0000 N   0  0
   -1.2990   -0.7500    0.0000 C   0  0
    0.0000   -1.5000    0.0000 N   0  0
    2.5965   -3.0004    0.0000 C   0  0
    3.8943   -3.7525    0.0000 C   0  0
    3.8888   -5.2533    0.0000 C   0  0
    2.5875   -5.9994    0.0000 O   0  0
  1  2  1  0
  2  3  1  0
  3  4  2  0
  4  5  1  0
  5  6  2  0
  6  7  1  0
  7  8  2  0
  8  9  1  0
  9 10  2  0
 10 11  1  0
 11 12  1  0
 12 13  1  0
 13 14  1  0
 14 15  1  0
 15 16  1  0
 16 17  1  0
 17 12  1  0
 17 18  1  6
 11 19  2  0
 19 20  1  0
 20 21  1  0
 21 22  1  0
 22 23  1  0
 23 24  1  0
 24 25  1  0
 25 26  1  0
 26 21  1  0
 26 27  1  6
 20 28  2  0
 28 29  1  0
 29 10  1  0
 29 30  2  0
 30  7  1  0
  6 31  1  0
 31 32  2  0
 32  3  1  0
 32 33  1  0
 33 34  1  0
M  END
> <assay_chembl_id>
CHEMBL2363708

> <assay_description>
SANGER: Inhibition of human 22RV1 cell growth in a cell viability assay.

> <document_journal>
.

> <molecule_chembl_id>
CHEMBL1801204

> <standard_value>
707.17

> <IC50_uM>
0.70717

> <Activity>
Yes

> <Canonical_Smiles>
COc1ccc(-c2ccc3c(N4CCOC[C@@H]4C)nc(N4CCOC[C@@H]4C)nc3n2)cc1CO

$$$$

  SciTegic03142313312D

 27 29  0  0  0  0            999 V2000
   -0.6923   -4.0811    0.0000 C   0  0
    0.3114   -2.9665    0.0000 N   0  0
    1.8032   -3.1233    0.0000 C   0  0
    2.4133   -1.7530    0.0000 N   0  0
    1.2990   -0.7500    0.0000 C   0  0
    1.2990    0.7500    0.0000 C   0  0
    2.5981    1.5000    0.0000 F   0  0
    0.0000    1.5000    0.0000 C   0  0
   -0.0031    3.0008    0.0000 N   0  0
    1.2946    3.7547    0.0000 C   0  0
    2.5943    3.0056    0.0000 C   0  0
    3.8928    3.7565    0.0000 C   0  0
    3.8918    5.2565    0.0000 C   0  0
    5.1903    6.0074    0.0000 Br  0  0
    2.5923    6.0056    0.0000 C   0  0
    1.2937    5.2548    0.0000 C   0  0
   -0.0058    6.0039    0.0000 Cl  0  0
   -1.2990    0.7500    0.0000 C   0  0
   -2.6003    1.4977    0.0000 C   0  0
   -2.6030    2.9977    0.0000 O   0  0
   -3.8990    0.7455    0.0000 N   0  0
   -5.2003    1.4932    0.0000 O   0  0
   -6.4990    0.7409    0.0000 C   0  0
   -7.8003    1.4887    0.0000 C   0  0
   -9.0983    0.7368    0.0000 O   0  0
   -1.2990   -0.7500    0.0000 C   0  0
    0.0000   -1.5000    0.0000 C   0  0
  1  2  1  0
  2  3  1  0
  3  4  2  0
  4  5  1  0
  5  6  2  0
  6  7  1  0
  6  8  1  0
  8  9  1  0
  9 10  1  0
 10 11  2  0
 11 12  1  0
 12 13  2  0
 13 14  1  0
 13 15  1  0
 15 16  2  0
 16 10  1  0
 16 17  1  0
  8 18  2  0
 18 19  1  0
 19 20  2  0
 19 21  1  0
 21 22  1  0
 22 23  1  0
 23 24  1  0
 24 25  1  0
 18 26  1  0
 26 27  2  0
 27  5  1  0
 27  2  1  0
M  END
> <assay_chembl_id>
CHEMBL2363708

> <assay_description>
SANGER: Inhibition of human 22RV1 cell growth in a cell viability assay.

> <document_journal>
.

> <molecule_chembl_id>
CHEMBL1614701

> <standard_value>
63866.95

> <IC50_uM>
63.86695

> <Activity>
No

> <Canonical_Smiles>
Cn1cnc2c(F)c(Nc3ccc(Br)cc3Cl)c(C(=O)NOCCO)cc21

$$$$

  SciTegic03142313312D

 30 33  0  0  1  0            999 V2000
    2.5981   -1.5000    0.0000 C   0  0
    1.2990   -0.7500    0.0000 C   0  0
    1.2990    0.7500    0.0000 C   0  0
    0.0000    1.5000    0.0000 C   0  0
    0.0020    3.0008    0.0000 C   0  0  1  0  0  0
    1.3023    3.7487    0.0000 C   0  0
   -1.2963    3.7538    0.0000 N   0  0
   -1.2942    5.2546    0.0000 C   0  0
    0.0074    6.0004    0.0000 C   0  0
    0.0124    7.5003    0.0000 C   0  0
   -1.2841    8.2547    0.0000 C   0  0
   -2.5856    7.5091    0.0000 C   0  0
   -2.5907    6.0091    0.0000 C   0  0
   -3.8946    5.2658    0.0000 C   0  0
   -5.1900    6.0221    0.0000 O   0  0
   -3.9023    3.7658    0.0000 O   0  0
   -1.2990    0.7500    0.0000 C   0  0
   -2.5981    1.5000    0.0000 N   0  0
   -3.8971    0.7500    0.0000 C   0  0
   -5.1968    1.5003    0.0000 N   0  0
   -5.1993    3.0004    0.0000 C   0  0
   -6.4995    3.7483    0.0000 C   0  0
   -7.7974    2.9963    0.0000 O   0  0
   -7.7950    1.4963    0.0000 C   0  0
   -6.4948    0.7483    0.0000 C   0  0
   -3.8971   -0.7500    0.0000 C   0  0
   -2.5981   -1.5000    0.0000 C   0  0
   -2.5981   -3.0000    0.0000 O   0  0
   -1.2990   -0.7500    0.0000 N   0  0
    0.0000   -1.5000    0.0000 C   0  0
  1  2  1  0
  2  3  1  0
  3  4  2  0
  4  5  1  0
  5  6  1  6
  5  7  1  0
  7  8  1  0
  8  9  2  0
  9 10  1  0
 10 11  2  0
 11 12  1  0
 12 13  2  0
 13  8  1  0
 13 14  1  0
 14 15  2  0
 14 16  1  0
  4 17  1  0
 17 18  2  0
 18 19  1  0
 19 20  1  0
 20 21  1  0
 21 22  1  0
 22 23  1  0
 23 24  1  0
 24 25  1  0
 25 20  1  0
 19 26  2  0
 26 27  1  0
 27 28  2  0
 27 29  1  0
 29 17  1  0
 29 30  1  0
 30  2  2  0
M  END
> <assay_chembl_id>
CHEMBL2363708

> <assay_description>
SANGER: Inhibition of human 22RV1 cell growth in a cell viability assay.

> <document_journal>
.

> <molecule_chembl_id>
CHEMBL2165191

> <standard_value>
51899.13

> <IC50_uM>
51.89913

> <Activity>
No

> <Canonical_Smiles>
Cc1cc([C@@H](C)Nc2ccccc2C(=O)O)c2nc(N3CCOCC3)cc(=O)n2c1

$$$$

  SciTegic03142313312D

 18 20  0  0  0  0            999 V2000
    1.6317   -2.2458    0.0000 O   0  0
    0.7500   -1.0323    0.0000 C   0  0
    1.2135    0.3943    0.0000 C   0  0
    2.6375    0.8603    0.0000 C   0  0
    2.9474    2.3287    0.0000 C   0  0
    4.3111    2.9223    0.0000 C   0  0
    4.1491    4.4135    0.0000 C   0  0
    2.6808    4.7202    0.0000 C   0  0
    1.9353    3.4185    0.0000 S   0  0
    0.0000    1.2760    0.0000 C   0  0
   -1.2135    0.3943    0.0000 C   0  0
   -0.7500   -1.0323    0.0000 C   0  0
   -1.6332   -2.2426    0.0000 C   0  0
   -3.1255   -2.0835    0.0000 C   0  0
   -4.1114   -3.1971    0.0000 C   0  0
   -5.4796   -2.5822    0.0000 C   0  0
   -5.3176   -1.0910    0.0000 C   0  0
   -3.8493   -0.7842    0.0000 S   0  0
  1  2  2  0
  2  3  1  0
  3  4  2  0
  4  5  1  0
  5  6  2  0
  6  7  1  0
  7  8  2  0
  8  9  1  0
  9  5  1  0
  3 10  1  0
 10 11  1  0
 11 12  1  0
 12  2  1  0
 12 13  2  0
 13 14  1  0
 14 15  2  0
 15 16  1  0
 16 17  2  0
 17 18  1  0
 18 14  1  0
M  END
> <assay_chembl_id>
CHEMBL2363708

> <assay_description>
SANGER: Inhibition of human 22RV1 cell growth in a cell viability assay.

> <document_journal>
.

> <molecule_chembl_id>
CHEMBL255342

> <standard_value>
75372.92

> <IC50_uM>
75.37292

> <Activity>
No

> <Canonical_Smiles>
O=C1/C(=C/c2cccs2)CC/C1=C\c1cccs1

$$$$

  SciTegic03142313312D

 35 38  0  0  0  0            999 V2000
   13.0059   -2.9773    0.0000 O   0  0
   13.0006   -1.4773    0.0000 C   0  0
   14.2971   -0.7228    0.0000 C   0  0
   14.2919    0.7772    0.0000 C   0  0
   15.5875    1.5347    0.0000 C   0  0
   15.5802    3.0356    0.0000 N   0  0
   16.8740    3.7946    0.0000 C   0  0
   16.8636    5.2946    0.0000 C   0  0
   15.5594    6.0356    0.0000 O   0  0
   14.2656    5.2766    0.0000 C   0  0
   14.2759    3.7766    0.0000 C   0  0
   12.9903    1.5227    0.0000 O   0  0
   11.6938    0.7682    0.0000 C   0  0
   11.6990   -0.7319    0.0000 C   0  0
   10.4003   -1.4841    0.0000 O   0  0
    9.0990   -0.7364    0.0000 C   0  0
    7.8003   -1.4887    0.0000 C   0  0
    6.4990   -0.7409    0.0000 C   0  0
    5.2003   -1.4932    0.0000 C   0  0
    3.8990   -0.7455    0.0000 C   0  0
    2.6003   -1.4977    0.0000 S   0  0
    1.2990   -0.7500    0.0000 C   0  0
    1.2990    0.7500    0.0000 C   0  0
    0.0000    1.5000    0.0000 C   0  0
   -1.2990    0.7500    0.0000 N   0  0
   -1.2990   -0.7500    0.0000 C   0  0
   -2.5981   -1.5000    0.0000 C   0  0
   -2.5981   -3.0000    0.0000 C   0  0
   -3.8978   -3.7504    0.0000 C   0  0
   -5.1973   -3.0013    0.0000 F   0  0
   -3.8973   -5.2504    0.0000 F   0  0
   -5.1965   -4.5011    0.0000 F   0  0
   -1.2990   -3.7500    0.0000 C   0  0
    0.0000   -3.0000    0.0000 C   0  0
    0.0000   -1.5000    0.0000 C   0  0
  1  2  2  0
  2  3  1  0
  3  4  2  0
  4  5  1  0
  5  6  1  0
  6  7  1  0
  7  8  1  0
  8  9  1  0
  9 10  1  0
 10 11  1  0
 11  6  1  0
  4 12  1  0
 12 13  1  0
 13 14  2  0
 14  2  1  0
 14 15  1  0
 15 16  1  0
 16 17  1  0
 17 18  1  0
 18 19  1  0
 19 20  1  0
 20 21  1  0
 21 22  1  0
 22 23  2  0
 23 24  1  0
 24 25  2  0
 25 26  1  0
 26 27  2  0
 27 28  1  0
 28 29  1  0
 29 30  1  0
 29 31  1  0
 29 32  1  0
 28 33  2  0
 33 34  1  0
 34 35  2  0
 35 22  1  0
 35 26  1  0
M  END
> <assay_chembl_id>
CHEMBL2363708

> <assay_description>
SANGER: Inhibition of human 22RV1 cell growth in a cell viability assay.

> <document_journal>
.

> <molecule_chembl_id>
CHEMBL1186585

> <standard_value>
40091.33

> <IC50_uM>
40.09133

> <Activity>
No

> <Canonical_Smiles>
O=c1cc(CN2CCOCC2)occ1OCCCCCSc1ccnc2cc(C(F)(F)F)ccc12

$$$$

  SciTegic03142313312D

 34 36  0  0  1  0            999 V2000
    2.5876    3.0013    0.0000 N   0  0
    2.5922    1.5013    0.0000 C   0  0
    1.2952    0.7477    0.0000 O   0  0
    3.8944    0.7552    0.0000 C   0  0  1  0  0  0
    5.1921    1.5092    0.0000 C   0  0
    5.1890    3.0100    0.0000 C   0  0
    6.4867    3.7640    0.0000 C   0  0
    6.4835    5.2640    0.0000 F   0  0
    7.7840    4.5169    0.0000 F   0  0
    7.7875    3.0171    0.0000 F   0  0
    3.8990   -0.7455    0.0000 N   0  0
    2.6003   -1.4978    0.0000 C   0  0
    2.6016   -2.9986    0.0000 C   0  0
    3.9028   -3.7449    0.0000 C   0  0
    3.9072   -5.2449    0.0000 C   0  0
    2.6103   -5.9986    0.0000 C   0  0
    2.6146   -7.4994    0.0000 C   0  0
    3.8293   -8.3577    0.0000 N   0  0
    3.3676   -9.7848    0.0000 C   0  0
    1.8676   -9.7868    0.0000 O   0  0
    1.4022   -8.3608    0.0000 N   0  0
    1.3091   -5.2524    0.0000 C   0  0
    1.3048   -3.7524    0.0000 C   0  0
    0.0036   -3.0062    0.0000 F   0  0
    5.2003   -1.4934    0.0000 S   0  0
    3.9026   -2.2458    0.0000 O   0  0
    5.2028   -2.9934    0.0000 O   0  0
    6.4990   -0.7412    0.0000 C   0  0
    7.7991   -1.4895    0.0000 C   0  0
    9.0971   -0.7377    0.0000 C   0  0
    9.0950    0.7623    0.0000 C   0  0
   10.3930    1.5141    0.0000 Cl  0  0
    7.7950    1.5105    0.0000 C   0  0
    6.4969    0.7588    0.0000 C   0  0
  1  2  1  0
  2  3  2  0
  2  4  1  0
  4  5  1  1
  5  6  1  0
  6  7  1  0
  7  8  1  0
  7  9  1  0
  7 10  1  0
  4 11  1  0
 11 12  1  0
 12 13  1  0
 13 14  2  0
 14 15  1  0
 15 16  2  0
 16 17  1  0
 17 18  1  0
 18 19  2  0
 19 20  1  0
 20 21  1  0
 21 17  2  0
 16 22  1  0
 22 23  2  0
 23 13  1  0
 23 24  1  0
 11 25  1  0
 25 26  2  0
 25 27  2  0
 25 28  1  0
 28 29  2  0
 29 30  1  0
 30 31  2  0
 31 32  1  0
 31 33  1  0
 33 34  2  0
 34 28  1  0
M  END
> <assay_chembl_id>
CHEMBL2363708

> <assay_description>
SANGER: Inhibition of human 22RV1 cell growth in a cell viability assay.

> <document_journal>
.

> <molecule_chembl_id>
CHEMBL1090771

> <standard_value>
76529.1

> <IC50_uM>
76.5291

> <Activity>
No

> <Canonical_Smiles>
NC(=O)[C@@H](CCC(F)(F)F)N(Cc1ccc(-c2ncon2)cc1F)S(=O)(=O)c1ccc(Cl)cc1

$$$$

  SciTegic03142313312D

 28 31  0  0  0  0            999 V2000
    2.5191  -12.2286    0.0000 C   0  0
    1.7776  -10.9247    0.0000 C   0  0
    0.2768  -10.9139    0.0000 C   0  0
   -0.4798  -12.2092    0.0000 C   0  0
   -1.9798  -12.2016    0.0000 N   0  0
   -2.7232  -10.8987    0.0000 C   0  0
   -1.9666   -9.6035    0.0000 N   0  0
   -0.4666   -9.6110    0.0000 C   0  0
    0.2883   -8.3139    0.0000 N   0  0
    1.7883   -8.3192    0.0000 C   0  0
    2.5428   -7.0227    0.0000 C   0  0
    1.7974   -5.7210    0.0000 N   0  0
    2.5497   -4.4224    0.0000 C   0  0
    1.8032   -3.1233    0.0000 C   0  0
    2.4133   -1.7530    0.0000 N   0  0
    1.2990   -0.7500    0.0000 C   0  0
    1.2990    0.7500    0.0000 C   0  0
    0.0000    1.5000    0.0000 C   0  0
    0.0000    3.0008    0.0000 C   0  0
    1.2985    3.7517    0.0000 F   0  0
   -1.2993    3.7504    0.0000 F   0  0
   -0.0007    4.5008    0.0000 F   0  0
   -1.2990    0.7500    0.0000 C   0  0
   -1.2990   -0.7500    0.0000 C   0  0
    0.0000   -1.5000    0.0000 C   0  0
    0.3114   -2.9665    0.0000 N   0  0
    0.2973   -5.7159    0.0000 C   0  0
   -0.4572   -7.0123    0.0000 C   0  0
  1  2  1  0
  2  3  1  0
  3  4  2  0
  4  5  1  0
  5  6  2  0
  6  7  1  0
  7  8  2  0
  8  3  1  0
  8  9  1  0
  9 10  1  0
 10 11  1  0
 11 12  1  0
 12 13  1  0
 13 14  1  0
 14 15  2  0
 15 16  1  0
 16 17  2  0
 17 18  1  0
 18 19  1  0
 19 20  1  0
 19 21  1  0
 19 22  1  0
 18 23  2  0
 23 24  1  0
 24 25  2  0
 25 16  1  0
 25 26  1  0
 26 14  1  0
 12 27  1  0
 27 28  1  0
 28  9  1  0
M  END
> <assay_chembl_id>
CHEMBL2363708

> <assay_description>
SANGER: Inhibition of human 22RV1 cell growth in a cell viability assay.

> <document_journal>
.

> <molecule_chembl_id>
CHEMBL2134202

> <standard_value>
47901.51

> <IC50_uM>
47.90151

> <Activity>
No

> <Canonical_Smiles>
CCc1cncnc1N1CCN(Cc2nc3cc(C(F)(F)F)ccc3[nH]2)CC1

$$$$

  SciTegic03142313312D

 25 28  0  0  0  0            999 V2000
    1.2990   -0.7500    0.0000 C   0  0
    1.2990    0.7500    0.0000 C   0  0
    0.0000    1.5000    0.0000 C   0  0
   -1.2990    0.7500    0.0000 C   0  0
   -2.7248    1.2135    0.0000 C   0  0
   -3.1905    2.6376    0.0000 C   0  0
   -4.6589    2.9478    0.0000 C   0  0
   -5.1253    4.3743    0.0000 N   0  0
   -6.5938    4.6845    0.0000 C   0  0
   -7.0621    6.1095    0.0000 C   0  0
   -8.5303    6.4166    0.0000 C   0  0
   -9.5303    5.2986    0.0000 C   0  0
  -11.0000    5.6028    0.0000 N   0  0
  -11.9990    4.4827    0.0000 C   0  0
  -13.4683    4.7846    0.0000 C   0  0
  -14.4645    3.6631    0.0000 C   0  0
  -13.9914    2.2397    0.0000 N   0  0
  -12.5221    1.9377    0.0000 C   0  0
  -11.5259    3.0592    0.0000 C   0  0
   -9.0621    3.8735    0.0000 C   0  0
   -7.5939    3.5665    0.0000 C   0  0
   -3.6065    0.0000    0.0000 C   0  0
   -2.7248   -1.2135    0.0000 N   0  0
   -1.2990   -0.7500    0.0000 C   0  0
    0.0000   -1.5000    0.0000 C   0  0
  1  2  2  0
  2  3  1  0
  3  4  2  0
  4  5  1  0
  5  6  1  0
  6  7  1  0
  7  8  1  0
  8  9  1  0
  9 10  2  0
 10 11  1  0
 11 12  2  0
 12 13  1  0
 13 14  1  0
 14 15  2  0
 15 16  1  0
 16 17  2  0
 17 18  1  0
 18 19  2  0
 19 14  1  0
 12 20  1  0
 20 21  2  0
 21  9  1  0
  5 22  2  0
 22 23  1  0
 23 24  1  0
 24  4  1  0
 24 25  2  0
 25  1  1  0
M  END
> <assay_chembl_id>
CHEMBL2363708

> <assay_description>
SANGER: Inhibition of human 22RV1 cell growth in a cell viability assay.

> <document_journal>
.

> <molecule_chembl_id>
CHEMBL2137530

> <standard_value>
23186.61

> <IC50_uM>
23.18661

> <Activity>
No

> <Canonical_Smiles>
c1ccc2c(CCNc3ccc(Nc4ccncc4)cc3)c[nH]c2c1

$$$$

  SciTegic03142313312D

 26 29  0  0  0  0            999 V2000
    2.8702   -8.2985    0.0000 C   0  0
    1.4134   -7.9408    0.0000 C   0  0
    0.9937   -6.4998    0.0000 C   0  0
    2.0333   -5.4186    0.0000 C   0  0
    1.6115   -3.9772    0.0000 C   0  0
    2.7343   -2.9815    0.0000 C   0  0
    4.2010   -3.2956    0.0000 N   0  0
    4.9531   -1.9978    0.0000 N   0  0
    3.9511   -0.8815    0.0000 C   0  0
    4.2566    0.5871    0.0000 C   0  0
    2.5987   -1.5004    0.0000 C   0  0
    1.2990   -0.7500    0.0000 C   0  0
    1.2990    0.7500    0.0000 C   0  0
    0.0000    1.5000    0.0000 C   0  0
   -1.2990    0.7500    0.0000 C   0  0
   -1.2990   -0.7500    0.0000 C   0  0
    0.0000   -1.5000    0.0000 C   0  0
   -2.5981   -1.5000    0.0000 O   0  0
   -3.8971   -0.7500    0.0000 C   0  0
   -3.8971    0.7500    0.0000 C   0  0
   -2.5981    1.5000    0.0000 O   0  0
    0.1606   -3.6178    0.0000 C   0  0
   -0.2555   -2.1767    0.0000 O   0  0
   -0.8791   -4.6991    0.0000 C   0  0
   -0.4625   -6.1401    0.0000 C   0  0
   -1.5022   -7.2213    0.0000 O   0  0
  1  2  1  0
  2  3  1  0
  3  4  2  0
  4  5  1  0
  5  6  1  0
  6  7  1  0
  7  8  1  0
  8  9  2  0
  9 10  1  0
  9 11  1  0
 11  6  2  0
 11 12  1  0
 12 13  2  0
 13 14  1  0
 14 15  2  0
 15 16  1  0
 16 17  2  0
 17 12  1  0
 16 18  1  0
 18 19  1  0
 19 20  1  0
 20 21  1  0
 21 15  1  0
  5 22  2  0
 22 23  1  0
 22 24  1  0
 24 25  2  0
 25  3  1  0
 25 26  1  0
M  END
> <assay_chembl_id>
CHEMBL2363708

> <assay_description>
SANGER: Inhibition of human 22RV1 cell growth in a cell viability assay.

> <document_journal>
.

> <molecule_chembl_id>
CHEMBL399530

> <standard_value>
39536.37

> <IC50_uM>
39.53637

> <Activity>
No

> <Canonical_Smiles>
CCc1cc(-c2[nH]nc(C)c2-c2ccc3c(c2)OCCO3)c(O)cc1O

$$$$

  SciTegic03142313312D

 29 30  0  0  1  0            999 V2000
    5.1983   -3.0012    0.0000 C   0  0
    5.1988   -1.5012    0.0000 C   0  0  2  0  0  0
    5.1992   -0.0012    0.0000 O   0  0
    3.8990   -0.7508    0.0000 C   0  0
    2.5988   -1.5004    0.0000 S   0  0
    2.5983   -3.0004    0.0000 O   0  0
    3.8975   -2.2510    0.0000 O   0  0
    1.2990   -0.7500    0.0000 C   0  0
    1.2990    0.7500    0.0000 C   0  0
    0.0000    1.5000    0.0000 C   0  0
   -1.2990    0.7500    0.0000 C   0  0
   -2.5981    1.5000    0.0000 F   0  0
   -1.2990   -0.7500    0.0000 C   0  0
    0.0000   -1.5000    0.0000 C   0  0
    6.4990   -0.7516    0.0000 C   0  0
    6.4995    0.7484    0.0000 O   0  0
    7.7988   -1.5020    0.0000 N   0  0
    9.0990   -0.7525    0.0000 C   0  0
   10.3991   -1.5006    0.0000 C   0  0
   11.6971   -0.7487    0.0000 C   0  0
   11.6950    0.7512    0.0000 C   0  0
   12.9937    1.5035    0.0000 C   0  0
   14.2917    2.2553    0.0000 N   0  0
   10.3949    1.4994    0.0000 C   0  0
   10.3928    3.0003    0.0000 C   0  0
   11.6903    3.7529    0.0000 F   0  0
    9.0925    3.7480    0.0000 F   0  0
   10.3900    4.5002    0.0000 F   0  0
    9.0969    0.7476    0.0000 C   0  0
  2  1  1  1
  2  3  1  0
  2  4  1  0
  4  5  1  0
  5  6  2  0
  5  7  2  0
  5  8  1  0
  8  9  2  0
  9 10  1  0
 10 11  2  0
 11 12  1  0
 11 13  1  0
 13 14  2  0
 14  8  1  0
  2 15  1  0
 15 16  2  0
 15 17  1  0
 17 18  1  0
 18 19  2  0
 19 20  1  0
 20 21  2  0
 21 22  1  0
 22 23  3  0
 21 24  1  0
 24 25  1  0
 25 26  1  0
 25 27  1  0
 25 28  1  0
 24 29  2  0
 29 18  1  0
M  END
> <assay_chembl_id>
CHEMBL3371370

> <assay_description>
Inhibition of cell survival in human CWR22Rv1 cells after 144 hrs by TUNEL assay

> <document_journal>
J Med Chem

> <molecule_chembl_id>
CHEMBL63560

> <standard_value>
37400

> <IC50_uM>
37.4

> <Activity>
No

> <Canonical_Smiles>
C[C@](O)(CS(=O)(=O)c1ccc(F)cc1)C(=O)Nc1ccc(C#N)c(C(F)(F)F)c1

$$$$

  SciTegic03142313312D

 34 38  0  0  1  0            999 V2000
    8.5560   -0.8962    0.0000 C   0  0
    7.4824   -1.9437    0.0000 O   0  0
    6.0373   -1.5383    0.0000 C   0  0
    5.6691   -0.0842    0.0000 C   0  0
    4.2257    0.3239    0.0000 C   0  0
    3.1484   -0.7186    0.0000 C   0  0
    1.6852   -0.3846    0.0000 C   0  0  1  0  0  0
    1.3514    1.0778    0.0000 S   0  0
    0.0000    1.7286    0.0000 S   0  0
   -1.3515    1.0777    0.0000 C   0  0  1  0  0  0
   -2.4593    2.0911    0.0000 C   0  0
   -3.8916    1.6455    0.0000 C   0  0  2  0  0  0
   -3.5614    3.1087    0.0000 O   0  0
   -4.9937    2.6631    0.0000 C   0  0  2  0  0  0
   -4.6635    4.1263    0.0000 Cl  0  0
   -6.4260    2.2175    0.0000 C   0  0
   -6.7562    0.7543    0.0000 C   0  0
   -5.6541   -0.2633    0.0000 C   0  0  1  0  0  0
   -5.9844   -1.7265    0.0000 O   0  0
   -4.2219    0.1823    0.0000 C   0  0  2  0  0  0
   -3.1198   -0.8353    0.0000 O   0  0
   -1.6852   -0.3847    0.0000 N   0  0
   -0.7500   -1.5574    0.0000 C   0  0
   -1.4008   -2.9088    0.0000 O   0  0
    0.7500   -1.5574    0.0000 C   0  0  2  0  0  0
    1.2319    0.0231    0.0000 N   0  0
    2.7053    0.3044    0.0000 C   0  0
    0.2966    1.1959    0.0000 C   0  0
    0.8987    2.5697    0.0000 O   0  0
    3.5188   -2.1762    0.0000 C   0  0
    2.4440   -3.2226    0.0000 O   0  0
    4.9622   -2.5843    0.0000 C   0  0
    5.3336   -4.0384    0.0000 O   0  0
    6.7776   -4.4445    0.0000 C   0  0
  1  2  1  0
  2  3  1  0
  3  4  2  0
  4  5  1  0
  5  6  2  0
  7  6  1  6
  7  8  1  0
  8  9  1  0
 10  9  1  6
 10 11  1  0
 11 12  1  0
 12 13  1  6
 12 14  1  0
 14 15  1  1
 14 16  1  0
 16 17  2  0
 17 18  1  0
 18 19  1  6
 18 20  1  0
 20 12  1  0
 20 21  1  1
 21 22  1  0
 22 10  1  0
 22 23  1  0
 23 24  2  0
 25 23  1  6
 25  7  1  0
 25 26  1  0
 26 27  1  0
 26 28  1  0
 28 10  1  0
 28 29  2  0
  6 30  1  0
 30 31  1  0
 30 32  2  0
 32  3  1  0
 32 33  1  0
 33 34  1  0
M  END
> <assay_chembl_id>
CHEMBL4033842

> <assay_description>
Cytotoxicity against human 22Rv1 cells after 24 to 72 hrs by MTT assay

> <document_journal>
J Nat Prod

> <molecule_chembl_id>
CHEMBL4073822

> <standard_value>
510

> <IC50_uM>
0.51

> <Activity>
Yes

> <Canonical_Smiles>
COc1ccc([C@H]2SS[C@@]34C[C@]5(O)[C@H](Cl)C=C[C@@H](O)[C@@H]5ON3C(=O)[C@@H]2N(C)C4=O)c(O)c1OC

$$$$

  SciTegic03142313312D

 26 28  0  0  0  0            999 V2000
    1.2948   -3.7516    0.0000 O   0  0
    2.5951   -3.0039    0.0000 C   0  0
    2.5973   -1.5031    0.0000 N   0  0
    1.2990   -0.7500    0.0000 C   0  0
    1.2990    0.7500    0.0000 C   0  0
    0.0000    1.5000    0.0000 C   0  0
   -1.2990    0.7500    0.0000 C   0  0
   -1.2990   -0.7500    0.0000 C   0  0
   -2.5988   -1.5004    0.0000 C   0  0
   -3.8983   -0.7513    0.0000 F   0  0
   -2.5983   -3.0004    0.0000 F   0  0
   -3.8975   -2.2510    0.0000 F   0  0
    0.0000   -1.5000    0.0000 C   0  0
    3.8933   -3.7570    0.0000 C   0  0
    4.0312   -5.2378    0.0000 C   0  0
    2.9105   -6.2349    0.0000 O   0  0
    5.4984   -5.5497    0.0000 N   0  0
    6.2484   -4.2507    0.0000 N   0  0
    5.2447   -3.1359    0.0000 N   0  0
    5.5480   -1.6688    0.0000 C   0  0
    6.9725   -1.1961    0.0000 C   0  0
    7.2783    0.2725    0.0000 C   0  0
    8.7029    0.7420    0.0000 C   0  0
    9.8218   -0.2570    0.0000 C   0  0
    9.5161   -1.7255    0.0000 C   0  0
    8.0915   -2.1951    0.0000 C   0  0
  1  2  2  0
  2  3  1  0
  3  4  1  0
  4  5  2  0
  5  6  1  0
  6  7  2  0
  7  8  1  0
  8  9  1  0
  9 10  1  0
  9 11  1  0
  9 12  1  0
  8 13  2  0
 13  4  1  0
  2 14  1  0
 14 15  2  0
 15 16  1  0
 15 17  1  0
 17 18  2  0
 18 19  1  0
 19 14  1  0
 19 20  1  0
 20 21  1  0
 21 22  2  0
 22 23  1  0
 23 24  2  0
 24 25  1  0
 25 26  2  0
 26 21  1  0
M  END
> <assay_chembl_id>
CHEMBL4133568

> <assay_description>
Antiproliferative activity against human 22Rv1 cells after 72 hrs by sulforhodamine B colorimetric proliferation assay

> <document_journal>
Eur J Med Chem

> <molecule_chembl_id>
CHEMBL4166887

> <standard_value>
67120

> <IC50_uM>
67.12

> <Activity>
No

> <Canonical_Smiles>
O=C(Nc1cccc(C(F)(F)F)c1)c1c(O)nnn1Cc1ccccc1

$$$$

  SciTegic03142313312D

 28 30  0  0  0  0            999 V2000
    2.5951   -3.0031    0.0000 C   0  0
    2.5973   -1.5031    0.0000 O   0  0
    1.2990   -0.7500    0.0000 C   0  0
    1.2990    0.7500    0.0000 C   0  0
    0.0000    1.5000    0.0000 C   0  0
   -1.2990    0.7500    0.0000 C   0  0
   -2.6003    1.4977    0.0000 C   0  0
   -3.8990    0.7455    0.0000 N   0  0
   -4.0317   -0.7359    0.0000 N   0  0
   -5.4979   -1.0529    0.0000 N   0  0
   -6.2524    0.2436    0.0000 C   0  0
   -7.7447    0.3952    0.0000 O   0  0
   -5.2526    1.3618    0.0000 C   0  0
   -5.5549    2.8291    0.0000 C   0  0
   -6.9786    3.3012    0.0000 O   0  0
   -4.4338    3.8270    0.0000 N   0  0
   -4.7366    5.2970    0.0000 C   0  0
   -3.6176    6.2960    0.0000 C   0  0
   -3.9232    7.7646    0.0000 C   0  0
   -5.3478    8.2342    0.0000 C   0  0
   -6.4668    7.2353    0.0000 C   0  0
   -7.8922    7.7052    0.0000 C   0  0
   -8.1987    9.1735    0.0000 F   0  0
   -9.0109    6.7059    0.0000 F   0  0
   -9.3170    8.1741    0.0000 F   0  0
   -6.1612    5.7667    0.0000 C   0  0
   -1.2990   -0.7500    0.0000 C   0  0
    0.0000   -1.5000    0.0000 C   0  0
  1  2  1  0
  2  3  1  0
  3  4  2  0
  4  5  1  0
  5  6  2  0
  6  7  1  0
  7  8  1  0
  8  9  1  0
  9 10  2  0
 10 11  1  0
 11 12  1  0
 11 13  2  0
 13  8  1  0
 13 14  1  0
 14 15  2  0
 14 16  1  0
 16 17  1  0
 17 18  2  0
 18 19  1  0
 19 20  2  0
 20 21  1  0
 21 22  1  0
 22 23  1  0
 22 24  1  0
 22 25  1  0
 21 26  2  0
 26 17  1  0
  6 27  1  0
 27 28  2  0
 28  3  1  0
M  END
> <assay_chembl_id>
CHEMBL4133568

> <assay_description>
Antiproliferative activity against human 22Rv1 cells after 72 hrs by sulforhodamine B colorimetric proliferation assay

> <document_journal>
Eur J Med Chem

> <molecule_chembl_id>
CHEMBL4174786

> <standard_value>
81400

> <IC50_uM>
81.4

> <Activity>
No

> <Canonical_Smiles>
COc1ccc(Cn2nnc(O)c2C(=O)Nc2cccc(C(F)(F)F)c2)cc1

$$$$

  SciTegic03142313312D

 32 34  0  0  0  0            999 V2000
    5.1996   -1.4928    0.0000 C   0  0
    3.8990   -0.7455    0.0000 N   0  0
    2.6003   -1.4977    0.0000 C   0  0
    2.6030   -2.9977    0.0000 O   0  0
    1.2990   -0.7500    0.0000 C   0  0
    1.2990    0.7500    0.0000 C   0  0
    0.0000    1.5000    0.0000 C   0  0
   -1.2990    0.7500    0.0000 C   0  0
   -2.5987    1.5004    0.0000 N   0  0
   -3.9492    0.8772    0.0000 C   0  0
   -4.2500   -0.5923    0.0000 S   0  0
   -4.9546    1.9903    0.0000 N   0  0
   -6.4469    1.8311    0.0000 C   0  0
   -7.1532    0.5134    0.0000 C   0  0
   -8.6524    0.4669    0.0000 C   0  0
   -9.4423    1.7421    0.0000 C   0  0
  -10.9424    1.6956    0.0000 C   0  0
  -12.4417    1.6491    0.0000 N   0  0
   -8.7329    3.0637    0.0000 C   0  0
   -9.5233    4.3396    0.0000 C   0  0
  -11.0226    4.2941    0.0000 F   0  0
   -8.8135    5.6610    0.0000 F   0  0
  -10.3126    5.6152    0.0000 F   0  0
   -7.2337    3.1102    0.0000 C   0  0
   -4.2067    3.2905    0.0000 C   0  0
   -4.8190    4.6599    0.0000 O   0  0
   -2.7390    2.9810    0.0000 C   0  0
   -1.3214    2.4906    0.0000 C   0  0
   -3.0655    4.4450    0.0000 C   0  0
   -1.2990   -0.7500    0.0000 C   0  0
    0.0000   -1.5000    0.0000 C   0  0
    0.0000   -3.0000    0.0000 F   0  0
  1  2  1  0
  2  3  1  0
  3  4  2  0
  3  5  1  0
  5  6  2  0
  6  7  1  0
  7  8  2  0
  8  9  1  0
  9 10  1  0
 10 11  2  0
 10 12  1  0
 12 13  1  0
 13 14  2  0
 14 15  1  0
 15 16  2  0
 16 17  1  0
 17 18  3  0
 16 19  1  0
 19 20  1  0
 20 21  1  0
 20 22  1  0
 20 23  1  0
 19 24  2  0
 24 13  1  0
 12 25  1  0
 25 26  2  0
 25 27  1  0
 27  9  1  0
 27 28  1  0
 27 29  1  0
  8 30  1  0
 30 31  2  0
 31  5  1  0
 31 32  1  0
M  END
> <assay_chembl_id>
CHEMBL4148686

> <assay_description>
Antiproliferative activity against human 22Rv1 cells after 72 hrs by Cell-Titer Glo assay

> <document_journal>
Eur J Med Chem

> <molecule_chembl_id>
CHEMBL1082407

> <standard_value>
36660

> <IC50_uM>
36.66

> <Activity>
No

> <Canonical_Smiles>
CNC(=O)c1ccc(N2C(=S)N(c3ccc(C#N)c(C(F)(F)F)c3)C(=O)C2(C)C)cc1F

$$$$

  SciTegic03142313312D

 31 34  0  0  1  0            999 V2000
    5.2315    1.1941    0.0000 C   0  0
    3.7691    0.8603    0.0000 C   0  0
    3.1796   -0.5190    0.0000 S   0  0
    1.6852   -0.3846    0.0000 C   0  0
    1.3514    1.0778    0.0000 C   0  0
    2.6395    1.8472    0.0000 C   0  0
    2.7740    3.3412    0.0000 C   0  0
    0.0000    1.7286    0.0000 C   0  0
    0.0000    3.2293    0.0000 C   0  0
    1.3386    3.9148    0.0000 C   0  0
    1.4153    5.4128    0.0000 C   0  0
    0.1563    6.2283    0.0000 C   0  0
    0.2330    7.7263    0.0000 Cl  0  0
   -1.1794    5.5457    0.0000 C   0  0
   -1.2561    4.0476    0.0000 C   0  0
   -1.3515    1.0777    0.0000 N   0  0
   -1.6852   -0.3847    0.0000 C   0  0  1  0  0  0
   -3.1510   -0.7161    0.0000 C   0  0
   -4.1703    0.3855    0.0000 C   0  0
   -3.7257    1.8181    0.0000 O   0  0
   -5.6342    0.0546    0.0000 O   0  0
   -6.6534    1.1562    0.0000 C   0  0
   -8.1165    0.8254    0.0000 C   0  0
   -7.6716    2.2577    0.0000 C   0  0
   -6.2088    2.5888    0.0000 C   0  0
   -0.7500   -1.5574    0.0000 C   0  0
   -1.2135   -2.9844    0.0000 N   0  0
    0.0000   -3.8661    0.0000 N   0  0
    1.2135   -2.9844    0.0000 C   0  0
    2.6401   -3.4480    0.0000 C   0  0
    0.7500   -1.5574    0.0000 N   0  0
  1  2  1  0
  2  3  1  0
  3  4  1  0
  4  5  2  0
  5  6  1  0
  6  2  2  0
  6  7  1  0
  5  8  1  0
  8  9  1  0
  9 10  2  0
 10 11  1  0
 11 12  2  0
 12 13  1  0
 12 14  1  0
 14 15  2  0
 15  9  1  0
  8 16  2  0
 16 17  1  0
 17 18  1  6
 18 19  1  0
 19 20  2  0
 19 21  1  0
 21 22  1  0
 22 23  1  0
 22 24  1  0
 22 25  1  0
 17 26  1  0
 26 27  2  0
 27 28  1  0
 28 29  2  0
 29 30  1  0
 29 31  1  0
 31 26  1  0
 31  4  1  0
M  END
> <assay_chembl_id>
CHEMBL4154891

> <assay_description>
Antiproliferative activity against human 22Rv1 cells treated at 12 hrs post cell seeding measured at 72 to 144 hrs post cell seeding by Cell-Titer Glo assay

> <document_journal>
Eur J Med Chem

> <molecule_chembl_id>
CHEMBL1957266

> <standard_value>
71

> <IC50_uM>
0.071

> <Activity>
Yes

> <Canonical_Smiles>
Cc1sc2c(c1C)C(c1ccc(Cl)cc1)=N[C@@H](CC(=O)OC(C)(C)C)c1nnc(C)n1-2

$$$$

  SciTegic03142313312D

 22 24  0  0  1  0            999 V2000
    1.6120   -3.9767    0.0000 C   0  0
    2.7343   -2.9815    0.0000 C   0  0
    4.2010   -3.2956    0.0000 N   0  0
    4.9531   -1.9978    0.0000 O   0  0
    3.9511   -0.8815    0.0000 C   0  0
    4.2566    0.5871    0.0000 C   0  0
    2.5987   -1.5004    0.0000 C   0  0
    1.2990   -0.7500    0.0000 C   0  0
    1.2990    0.7500    0.0000 C   0  0
    0.0000    1.5000    0.0000 C   0  0
   -1.2990    0.7500    0.0000 C   0  0
   -1.2990   -0.7500    0.0000 C   0  0
    0.0000   -1.5000    0.0000 C   0  0
   -2.5981   -1.5000    0.0000 O   0  0
   -3.8971   -0.7500    0.0000 C   0  0  2  0  0  0
   -5.1953   -1.5031    0.0000 C   0  0
   -5.1932   -3.0039    0.0000 C   0  0
   -6.4907   -3.7566    0.0000 C   0  0
   -3.8928   -3.7517    0.0000 C   0  0
   -3.8971    0.7500    0.0000 C   0  0
   -5.1962    1.5000    0.0000 O   0  0
   -2.5981    1.5000    0.0000 N   0  0
  1  2  1  0
  2  3  2  0
  3  4  1  0
  4  5  1  0
  5  6  1  0
  5  7  2  0
  7  2  1  0
  7  8  1  0
  8  9  2  0
  9 10  1  0
 10 11  2  0
 11 12  1  0
 12 13  2  0
 13  8  1  0
 12 14  1  0
 14 15  1  0
 15 16  1  6
 16 17  1  0
 17 18  1  0
 17 19  1  0
 15 20  1  0
 20 21  2  0
 20 22  1  0
 22 11  1  0
M  END
> <assay_chembl_id>
CHEMBL4154891

> <assay_description>
Antiproliferative activity against human 22Rv1 cells treated at 12 hrs post cell seeding measured at 72 to 144 hrs post cell seeding by Cell-Titer Glo assay

> <document_journal>
Eur J Med Chem

> <molecule_chembl_id>
CHEMBL4167192

> <standard_value>
580

> <IC50_uM>
0.58

> <Activity>
Yes

> <Canonical_Smiles>
Cc1noc(C)c1-c1ccc2c(c1)O[C@H](CC(C)C)C(=O)N2

$$$$

  SciTegic03142313312D

 22 25  0  0  1  0            999 V2000
    1.6120   -3.9767    0.0000 C   0  0
    2.7343   -2.9815    0.0000 C   0  0
    4.2010   -3.2956    0.0000 N   0  0
    4.9531   -1.9978    0.0000 O   0  0
    3.9511   -0.8815    0.0000 C   0  0
    4.2566    0.5871    0.0000 C   0  0
    2.5987   -1.5004    0.0000 C   0  0
    1.2990   -0.7500    0.0000 C   0  0
    1.2990    0.7500    0.0000 C   0  0
    0.0000    1.5000    0.0000 C   0  0
   -1.2990    0.7500    0.0000 C   0  0
   -1.2990   -0.7500    0.0000 C   0  0
    0.0000   -1.5000    0.0000 C   0  0
   -2.5981   -1.5000    0.0000 O   0  0
   -3.8971   -0.7500    0.0000 C   0  0  2  0  0  0
   -5.1953   -1.5031    0.0000 C   0  0
   -5.1932   -3.0039    0.0000 C   0  0
   -5.9389   -4.2142    0.0000 C   0  0
   -4.4389   -4.2089    0.0000 C   0  0
   -3.8971    0.7500    0.0000 C   0  0
   -5.1962    1.5000    0.0000 O   0  0
   -2.5981    1.5000    0.0000 N   0  0
  1  2  1  0
  2  3  2  0
  3  4  1  0
  4  5  1  0
  5  6  1  0
  5  7  2  0
  7  2  1  0
  7  8  1  0
  8  9  2  0
  9 10  1  0
 10 11  2  0
 11 12  1  0
 12 13  2  0
 13  8  1  0
 12 14  1  0
 14 15  1  0
 15 16  1  6
 16 17  1  0
 17 18  1  0
 18 19  1  0
 19 17  1  0
 15 20  1  0
 20 21  2  0
 20 22  1  0
 22 11  1  0
M  END
> <assay_chembl_id>
CHEMBL4154891

> <assay_description>
Antiproliferative activity against human 22Rv1 cells treated at 12 hrs post cell seeding measured at 72 to 144 hrs post cell seeding by Cell-Titer Glo assay

> <document_journal>
Eur J Med Chem

> <molecule_chembl_id>
CHEMBL4175060

> <standard_value>
990

> <IC50_uM>
0.99

> <Activity>
Yes

> <Canonical_Smiles>
Cc1noc(C)c1-c1ccc2c(c1)O[C@H](CC1CC1)C(=O)N2

$$$$

  SciTegic03142313312D

111117  0  0  1  0            999 V2000
   -0.0022   -5.9505    0.0000 C   0  0
   -1.4772   -5.6781    0.0000 C   0  0
   -1.9801   -4.2640    0.0000 C   0  0  1  0  0  0
   -3.4587   -4.5165    0.0000 C   0  0
   -4.4166   -3.3623    0.0000 N   0  0  3  0  0  0
   -5.8952   -3.6148    0.0000 C   0  0
   -6.8532   -2.4605    0.0000 C   0  0
   -6.3326   -1.0538    0.0000 C   0  0
   -7.2906    0.1005    0.0000 C   0  0
   -6.7700    1.5072    0.0000 C   0  0
   -7.7309    2.6601    0.0000 O   0  0
   -9.2091    2.4055    0.0000 C   0  0
   -5.2914    1.7597    0.0000 C   0  0
   -4.7676    3.1662    0.0000 O   0  0
   -3.2887    3.4166    0.0000 C   0  0
   -4.3334    0.6055    0.0000 C   0  0
   -4.8540   -0.8013    0.0000 C   0  0
   -3.8960   -1.9555    0.0000 C   0  0  2  0  0  0
   -2.4174   -1.7030    0.0000 C   0  0
   -1.4595   -2.8572    0.0000 C   0  0  2  0  0  0
   -0.1572   -2.1111    0.0000 C   0  0
    1.1405   -2.8650    0.0000 C   0  0  2  0  0  0
    1.6527   -4.2749    0.0000 C   0  0
    0.6878   -5.4233    0.0000 C   0  0
    1.1999   -6.8332    0.0000 C   0  0
    0.2321   -7.9803    0.0000 O   0  0
   -1.2446   -7.7168    0.0000 C   0  0
    2.6770   -7.0946    0.0000 C   0  0
    3.1923   -8.5042    0.0000 O   0  0
    4.6697   -8.7636    0.0000 C   0  0
    3.6419   -5.9462    0.0000 C   0  0
    3.1298   -4.5363    0.0000 C   0  0
    4.0947   -3.3879    0.0000 C   0  0
    3.5826   -1.9780    0.0000 C   0  0
    2.1056   -1.7166    0.0000 N   0  0
    1.5961   -0.3048    0.0000 C   0  0
    0.6117   -0.1288    0.0000 O   0  0
    2.5632    0.8428    0.0000 O   0  0
    2.0538    2.2545    0.0000 C   0  0
    3.0209    3.4022    0.0000 C   0  0
    2.5138    4.8139    0.0000 C   0  0
    3.4828    5.9590    0.0000 C   0  0
    4.9589    5.6924    0.0000 C   0  0
    5.9307    6.8361    0.0000 N   0  0
    7.4073    6.5672    0.0000 C   0  0
    7.9120    5.1547    0.0000 O   0  0
    8.3791    7.7109    0.0000 C   0  0  2  0  0  0
    7.8770    9.1253    0.0000 C   0  0
    8.8501   10.2679    0.0000 C   0  0
    8.3483   11.6814    0.0000 C   0  0
    9.8336   10.0867    0.0000 C   0  0
    9.8557    7.4420    0.0000 N   0  0
   10.8275    8.5857    0.0000 C   0  0
   10.4910    9.5274    0.0000 O   0  0
   12.3040    8.3169    0.0000 C   0  0  2  0  0  0
   12.8119    6.9046    0.0000 C   0  0
   14.2880    6.6375    0.0000 O   0  0
   13.2759    9.4606    0.0000 N   0  0
   14.7524    9.1917    0.0000 C   0  0
   15.2571    7.7792    0.0000 O   0  0
   15.7242   10.3354    0.0000 C   0  0  2  0  0  0
   15.2222   11.7498    0.0000 C   0  0
   16.1952   12.8924    0.0000 C   0  0
   15.6932   14.3067    0.0000 C   0  0
   14.2180   14.5785    0.0000 N   0  0
   16.6657   15.4487    0.0000 O   0  0
   17.2008   10.0666    0.0000 N   0  0
   18.1726   11.2103    0.0000 C   0  0
   17.6679   12.6228    0.0000 O   0  0
   19.6492   10.9414    0.0000 C   0  0  2  0  0  0
   20.1571    9.5291    0.0000 C   0  0
   21.6339    9.2619    0.0000 C   0  0
   22.1415    7.8504    0.0000 C   0  0
   22.2799   10.0253    0.0000 C   0  0
   20.6210   12.0851    0.0000 N   0  0
   22.0975   11.8163    0.0000 C   0  0
   22.4340   10.8746    0.0000 O   0  0
   23.0694   12.9599    0.0000 C   0  0  2  0  0  0
   22.5673   14.3743    0.0000 C   0  0
   23.5404   15.5169    0.0000 C   0  0
   23.0383   16.9313    0.0000 C   0  0
   24.0114   18.0739    0.0000 C   0  0
   23.5096   19.4874    0.0000 N   0  0
   24.5459   12.6911    0.0000 N   0  0
   25.5178   13.8348    0.0000 C   0  0
   25.0130   15.2473    0.0000 O   0  0
   26.9943   13.5659    0.0000 C   0  0  2  0  0  0
   27.5022   12.1537    0.0000 C   0  0
   28.9782   11.8866    0.0000 O   0  0
   27.9661   14.7096    0.0000 N   0  0
   29.4427   14.4408    0.0000 C   0  0
   29.9474   13.0282    0.0000 O   0  0
   30.4145   15.5845    0.0000 C   0  0  2  0  0  0
   29.9124   16.9988    0.0000 C   0  0
   30.8850   18.1408    0.0000 O   0  0
   31.8911   15.3156    0.0000 N   0  0
   32.8629   16.4593    0.0000 C   0  0
   32.3582   17.8718    0.0000 O   0  0
   34.3394   16.1905    0.0000 C   0  0  2  0  0  0
   35.3113   17.3341    0.0000 C   0  0
   36.7878   17.0653    0.0000 C   0  0
   37.8532   18.1030    0.0000 C   0  0
   39.1723   17.3887    0.0000 N   0  0
   38.9005   15.9135    0.0000 C   0  0
   37.4136   15.7161    0.0000 N   0  0
   34.8415   14.7761    0.0000 N   0  0
   33.8684   13.6335    0.0000 C   0  0
   32.3933   13.9052    0.0000 C   0  0
   34.3702   12.2199    0.0000 O   0  0
    5.4661    4.2807    0.0000 C   0  0
    4.4971    3.1356    0.0000 C   0  0
  1  2  1  0
  3  2  1  1
  3  4  1  0
  5  4  1  4
  5  6  1  0
  6  7  1  0
  7  8  1  0
  8  9  2  0
  9 10  1  0
 10 11  1  0
 11 12  1  0
 10 13  2  0
 13 14  1  0
 14 15  1  0
 13 16  1  0
 16 17  2  0
 17  8  1  0
 17 18  1  0
 18  5  1  0
 18 19  1  6
 19 20  1  0
 20  3  1  0
 20 21  1  6
 22 21  1  1
 22 23  1  0
 23 24  2  0
 24 25  1  0
 25 26  1  0
 26 27  1  0
 25 28  2  0
 28 29  1  0
 29 30  1  0
 28 31  1  0
 31 32  2  0
 32 23  1  0
 32 33  1  0
 33 34  1  0
 34 35  1  0
 35 22  1  0
 35 36  1  0
 36 37  2  0
 36 38  1  0
 38 39  1  0
 39 40  1  0
 40 41  2  0
 41 42  1  0
 42 43  2  0
 43 44  1  0
 44 45  1  0
 45 46  2  0
 45 47  1  0
 47 48  1  6
 48 49  1  0
 49 50  1  0
 49 51  1  0
 47 52  1  0
 52 53  1  0
 53 54  2  0
 53 55  1  0
 55 56  1  1
 56 57  1  0
 55 58  1  0
 58 59  1  0
 59 60  2  0
 59 61  1  0
 61 62  1  6
 62 63  1  0
 63 64  1  0
 64 65  1  0
 64 66  2  0
 61 67  1  0
 67 68  1  0
 68 69  2  0
 68 70  1  0
 70 71  1  1
 71 72  1  0
 72 73  1  0
 72 74  1  0
 70 75  1  0
 75 76  1  0
 76 77  2  0
 76 78  1  0
 78 79  1  6
 79 80  1  0
 80 81  1  0
 81 82  1  0
 82 83  1  0
 78 84  1  0
 84 85  1  0
 85 86  2  0
 85 87  1  0
 87 88  1  1
 88 89  1  0
 87 90  1  0
 90 91  1  0
 91 92  2  0
 91 93  1  0
 93 94  1  6
 94 95  1  0
 93 96  1  0
 96 97  1  0
 97 98  2  0
 97 99  1  0
 99100  1  6
100101  1  0
101102  2  0
102103  1  0
103104  2  0
104105  1  0
105101  1  0
 99106  1  0
106107  1  0
107108  1  0
107109  2  0
 43110  1  0
110111  2  0
111 40  1  0
M  END
> <assay_chembl_id>
CHEMBL4186357

> <assay_description>
Antiproliferative activity against human CWR22Rv1 cells expressing PSA after 3 days by MTT assay

> <document_journal>
Bioorg Med Chem

> <molecule_chembl_id>
CHEMBL4215066

> <standard_value>
75.81

> <IC50_uM>
0.07581

> <Activity>
Yes

> <Canonical_Smiles>
CC[C@H]1CN2CCc3cc(OC)c(OC)cc3[C@@H]2C[C@@H]1C[C@@H]1c2cc(OC)c(OC)cc2CCN1C(=O)OCc1ccc(NC(=O)[C@H](CC(C)C)NC(=O)[C@H](CO)NC(=O)[C@H](CCC(N)=O)NC(=O)[C@H](CC(C)C)NC(=O)[C@H](CCCCN)NC(=O)[C@H](CO)NC(=O)[C
@H](CO)NC(=O)[C@H](Cc2cnc[nH]2)NC(C)=O)cc1

$$$$

  SciTegic03142313312D

 35 39  0  0  1  0            999 V2000
    3.8983   -0.7459    0.0000 C   0  0
    2.6003   -1.4977    0.0000 C   0  0
    1.2990   -0.7500    0.0000 C   0  0  1  0  0  0
    1.2990    0.7500    0.0000 C   0  0
    0.0000    1.5000    0.0000 N   0  0  3  0  0  0
    0.0000    3.0000    0.0000 C   0  0
   -1.2991    3.7500    0.0000 C   0  0
   -2.5981    3.0000    0.0000 C   0  0
   -3.8971    3.7500    0.0000 C   0  0
   -5.1962    3.0000    0.0000 C   0  0
   -6.4944    3.7530    0.0000 O   0  0
   -6.4923    5.2530    0.0000 C   0  0
   -5.1962    1.5000    0.0000 C   0  0
   -6.4944    0.7469    0.0000 O   0  0
   -6.4922   -0.7531    0.0000 C   0  0
   -3.8971    0.7500    0.0000 C   0  0
   -2.5981    1.5000    0.0000 C   0  0
   -1.2990    0.7500    0.0000 C   0  0  2  0  0  0
   -1.2990   -0.7500    0.0000 C   0  0
    0.0000   -1.5000    0.0000 C   0  0  2  0  0  0
   -0.0031   -3.0008    0.0000 C   0  0
   -1.3039   -3.7494    0.0000 C   0  0  1  0  0  0
   -2.6004   -2.9949    0.0000 N   0  0
   -3.9021   -3.7405    0.0000 C   0  0
   -3.9072   -5.2404    0.0000 C   0  0
   -2.6108   -5.9949    0.0000 C   0  0
   -2.6160   -7.4949    0.0000 C   0  0
   -1.3195   -8.2494    0.0000 C   0  0
   -1.3278   -9.7502    0.0000 O   0  0
   -2.6305  -10.4939    0.0000 C   0  0
   -0.0179   -7.5039    0.0000 C   0  0
    1.2808   -8.2561    0.0000 O   0  0
    2.5814   -7.5087    0.0000 C   0  0
   -0.0127   -6.0039    0.0000 C   0  0
   -1.3092   -5.2494    0.0000 C   0  0
  1  2  1  0
  3  2  1  6
  3  4  1  0
  5  4  1  4
  5  6  1  0
  6  7  1  0
  7  8  1  0
  8  9  2  0
  9 10  1  0
 10 11  1  0
 11 12  1  0
 10 13  2  0
 13 14  1  0
 14 15  1  0
 13 16  1  0
 16 17  2  0
 17  8  1  0
 17 18  1  0
 18  5  1  0
 18 19  1  1
 19 20  1  0
 20  3  1  0
 20 21  1  1
 22 21  1  6
 22 23  1  0
 23 24  1  0
 24 25  1  0
 25 26  1  0
 26 27  2  0
 27 28  1  0
 28 29  1  0
 29 30  1  0
 28 31  2  0
 31 32  1  0
 32 33  1  0
 31 34  1  0
 34 35  2  0
 35 26  1  0
 35 22  1  0
M  END
> <assay_chembl_id>
CHEMBL4186357

> <assay_description>
Antiproliferative activity against human CWR22Rv1 cells expressing PSA after 3 days by MTT assay

> <document_journal>
Bioorg Med Chem

> <molecule_chembl_id>
CHEMBL50588

> <standard_value>
30.8

> <IC50_uM>
0.0308

> <Activity>
Yes

> <Canonical_Smiles>
CC[C@H]1CN2CCc3cc(OC)c(OC)cc3[C@@H]2C[C@@H]1C[C@H]1NCCc2cc(OC)c(OC)cc21

$$$$

  SciTegic03142313312D

 25 26  0  0  0  0            999 V2000
    4.0097   -3.2952    0.0000 C   0  0
    3.1255   -2.0835    0.0000 C   0  0
    1.6332   -2.2426    0.0000 C   0  0  3  0  0  0
    1.0255   -3.6140    0.0000 C   0  0
    0.7500   -1.0323    0.0000 N   0  0
    1.2135    0.3943    0.0000 C   0  0
    0.0000    1.2760    0.0000 C   0  0
   -1.2135    0.3943    0.0000 N   0  0
   -0.7500   -1.0323    0.0000 C   0  0
   -1.6332   -2.2426    0.0000 C   0  0
   -3.1255   -2.0835    0.0000 C   0  0
   -4.0102   -3.2959    0.0000 C   0  0
   -3.4025   -4.6673    0.0000 O   0  0
   -5.5026   -3.1369    0.0000 C   0  0
   -6.3873   -4.3492    0.0000 C   0  0
   -7.8796   -4.1902    0.0000 C   0  0
   -8.6034   -2.8909    0.0000 S   0  0
  -10.0717   -3.1977    0.0000 C   0  0
  -11.1829   -2.1901    0.0000 C   0  0
  -10.2337   -4.6889    0.0000 N   0  0
   -8.8655   -5.3038    0.0000 C   0  0
   -8.5479   -6.7679    0.0000 C   0  0
   -9.6577   -7.7770    0.0000 F   0  0
   -7.1192   -7.2249    0.0000 F   0  0
   -8.2291   -8.2336    0.0000 F   0  0
  1  2  1  0
  2  3  1  0
  3  4  1  4
  3  5  1  0
  5  6  1  0
  6  7  2  0
  7  8  1  0
  8  9  2  0
  9  5  1  0
  9 10  1  0
 10 11  2  0
 11 12  1  0
 12 13  2  0
 12 14  1  0
 14 15  2  0
 15 16  1  0
 16 17  1  0
 17 18  1  0
 18 19  1  0
 18 20  2  0
 20 21  1  0
 21 16  2  0
 21 22  1  0
 22 23  1  0
 22 24  1  0
 22 25  1  0
M  END
> <assay_chembl_id>
CHEMBL4191533

> <assay_description>
Antiproliferative activity against human 22Rv1 cells expressing androgen receptor splice variants assessed as decrease in cell viability after 5 days by trypan blue exclusion assay

> <document_journal>
Eur J Med Chem

> <molecule_chembl_id>
CHEMBL4206838

> <standard_value>
850

> <IC50_uM>
0.85

> <Activity>
Yes

> <Canonical_Smiles>
CCC(C)n1ccnc1/C=C/C(=O)/C=C/c1sc(C)nc1C(F)(F)F

$$$$

  SciTegic03142313312D

 26 28  0  0  0  0            999 V2000
    9.4964  -12.1872    0.0000 C   0  0
    9.9630  -10.7616    0.0000 C   0  0
    8.9618   -9.6435    0.0000 C   0  0
    9.4278   -8.2196    0.0000 N   0  0
   10.8528   -7.7511    0.0000 C   0  0
   10.8475   -6.2511    0.0000 C   0  0
    9.4193   -5.7926    0.0000 N   0  0
    8.5637   -7.0091    0.0000 C   0  0
    7.0629   -7.0113    0.0000 C   0  0
    6.3098   -5.7131    0.0000 C   0  0
    4.8090   -5.7153    0.0000 C   0  0
    4.0613   -7.0156    0.0000 O   0  0
    4.0559   -4.4171    0.0000 C   0  0
    2.5551   -4.4192    0.0000 C   0  0
    1.8032   -3.1233    0.0000 C   0  0
    2.4133   -1.7530    0.0000 N   0  0
    1.2990   -0.7500    0.0000 C   0  0
    1.2990    0.7500    0.0000 C   0  0
    0.0000    1.5000    0.0000 C   0  0
   -1.2990    0.7500    0.0000 C   0  0
   -1.2990   -0.7500    0.0000 C   0  0
    0.0000   -1.5000    0.0000 C   0  0
    0.3114   -2.9665    0.0000 N   0  0
   -0.6890   -4.0818    0.0000 C   0  0
   -0.2234   -5.5086    0.0000 C   0  0
   -1.2250   -6.6252    0.0000 C   0  0
  1  2  1  0
  2  3  1  0
  3  4  1  0
  4  5  1  0
  5  6  2  0
  6  7  1  0
  7  8  2  0
  8  4  1  0
  8  9  1  0
  9 10  2  0
 10 11  1  0
 11 12  2  0
 11 13  1  0
 13 14  2  0
 14 15  1  0
 15 16  2  0
 16 17  1  0
 17 18  2  0
 18 19  1  0
 19 20  2  0
 20 21  1  0
 21 22  2  0
 22 17  1  0
 22 23  1  0
 23 15  1  0
 23 24  1  0
 24 25  1  0
 25 26  1  0
M  END
> <assay_chembl_id>
CHEMBL4191533

> <assay_description>
Antiproliferative activity against human 22Rv1 cells expressing androgen receptor splice variants assessed as decrease in cell viability after 5 days by trypan blue exclusion assay

> <document_journal>
Eur J Med Chem

> <molecule_chembl_id>
CHEMBL4210606

> <standard_value>
220

> <IC50_uM>
0.22

> <Activity>
Yes

> <Canonical_Smiles>
CCCn1ccnc1/C=C/C(=O)/C=C/c1nc2ccccc2n1CCC

$$$$

  SciTegic03142313312D

 27 29  0  0  0  0            999 V2000
   -0.2237   -5.5078    0.0000 C   0  0
   -0.6890   -4.0818    0.0000 C   0  0
    0.3114   -2.9665    0.0000 N   0  0
    1.8032   -3.1233    0.0000 C   0  0
    2.5551   -4.4192    0.0000 C   0  0
    4.0559   -4.4171    0.0000 C   0  0
    4.8090   -5.7153    0.0000 C   0  0
    4.0613   -7.0156    0.0000 O   0  0
    6.3098   -5.7131    0.0000 C   0  0
    7.0629   -7.0113    0.0000 C   0  0
    8.5638   -7.0091    0.0000 C   0  0
    9.4193   -5.7926    0.0000 S   0  0
   10.8475   -6.2511    0.0000 C   0  0
   12.0580   -5.3652    0.0000 C   0  0
   10.8528   -7.7511    0.0000 N   0  0
    9.4278   -8.2196    0.0000 C   0  0
    8.9589   -9.6425    0.0000 C   0  0
    9.9572  -10.7621    0.0000 F   0  0
    7.4903   -9.9477    0.0000 F   0  0
    8.4887  -11.0669    0.0000 F   0  0
    2.4133   -1.7530    0.0000 N   0  0
    1.2990   -0.7500    0.0000 C   0  0
    1.2990    0.7500    0.0000 C   0  0
    0.0000    1.5000    0.0000 C   0  0
   -1.2990    0.7500    0.0000 C   0  0
   -1.2990   -0.7500    0.0000 C   0  0
    0.0000   -1.5000    0.0000 C   0  0
  1  2  1  0
  2  3  1  0
  3  4  1  0
  4  5  1  0
  5  6  2  0
  6  7  1  0
  7  8  2  0
  7  9  1  0
  9 10  2  0
 10 11  1  0
 11 12  1  0
 12 13  1  0
 13 14  1  0
 13 15  2  0
 15 16  1  0
 16 11  2  0
 16 17  1  0
 17 18  1  0
 17 19  1  0
 17 20  1  0
  4 21  2  0
 21 22  1  0
 22 23  2  0
 23 24  1  0
 24 25  2  0
 25 26  1  0
 26 27  2  0
 27 22  1  0
 27  3  1  0
M  END
> <assay_chembl_id>
CHEMBL4191533

> <assay_description>
Antiproliferative activity against human 22Rv1 cells expressing androgen receptor splice variants assessed as decrease in cell viability after 5 days by trypan blue exclusion assay

> <document_journal>
Eur J Med Chem

> <molecule_chembl_id>
CHEMBL4213439

> <standard_value>
220

> <IC50_uM>
0.22

> <Activity>
Yes

> <Canonical_Smiles>
CCn1c(/C=C/C(=O)/C=C/c2sc(C)nc2C(F)(F)F)nc2ccccc21

$$$$

  SciTegic03142313312D

 24 26  0  0  0  0            999 V2000
   -0.2237   -5.5078    0.0000 C   0  0
   -0.6890   -4.0818    0.0000 C   0  0
   -2.1567   -3.7722    0.0000 C   0  0
    0.3114   -2.9665    0.0000 N   0  0
    1.8032   -3.1233    0.0000 C   0  0
    2.5551   -4.4192    0.0000 C   0  0
    4.0559   -4.4171    0.0000 C   0  0
    4.8090   -5.7153    0.0000 C   0  0
    4.0613   -7.0156    0.0000 O   0  0
    6.3098   -5.7131    0.0000 C   0  0
    7.0629   -7.0113    0.0000 C   0  0
    8.5638   -7.0091    0.0000 C   0  0
    9.3184   -8.3055    0.0000 C   0  0
   10.8184   -8.3003    0.0000 C   0  0
   11.5638   -6.9986    0.0000 C   0  0
   10.8093   -5.7022    0.0000 C   0  0
    9.3093   -5.7074    0.0000 N   0  0
    2.4133   -1.7530    0.0000 N   0  0
    1.2990   -0.7500    0.0000 C   0  0
    1.2990    0.7500    0.0000 C   0  0
    0.0000    1.5000    0.0000 C   0  0
   -1.2990    0.7500    0.0000 C   0  0
   -1.2990   -0.7500    0.0000 C   0  0
    0.0000   -1.5000    0.0000 C   0  0
  1  2  1  0
  2  3  1  0
  2  4  1  0
  4  5  1  0
  5  6  1  0
  6  7  2  0
  7  8  1  0
  8  9  2  0
  8 10  1  0
 10 11  2  0
 11 12  1  0
 12 13  2  0
 13 14  1  0
 14 15  2  0
 15 16  1  0
 16 17  2  0
 17 12  1  0
  5 18  2  0
 18 19  1  0
 19 20  2  0
 20 21  1  0
 21 22  2  0
 22 23  1  0
 23 24  2  0
 24 19  1  0
 24  4  1  0
M  END
> <assay_chembl_id>
CHEMBL4191533

> <assay_description>
Antiproliferative activity against human 22Rv1 cells expressing androgen receptor splice variants assessed as decrease in cell viability after 5 days by trypan blue exclusion assay

> <document_journal>
Eur J Med Chem

> <molecule_chembl_id>
CHEMBL4209057

> <standard_value>
450

> <IC50_uM>
0.45

> <Activity>
Yes

> <Canonical_Smiles>
CC(C)n1c(/C=C/C(=O)/C=C/c2ccccn2)nc2ccccc21

$$$$

  SciTegic03142313312D

 36 41  0  0  1  0            999 V2000
   -0.0032    0.0545    0.0000 C   0  0
    1.2619    0.8605    0.0000 C   0  0
    2.5924    0.1679    0.0000 C   0  0
    2.6578   -1.3307    0.0000 C   0  0
    3.8575    0.9738    0.0000 C   0  0  2  0  0  0
    5.1880    0.2812    0.0000 O   0  0
    3.7921    2.4724    0.0000 C   0  0  2  0  0  0
    5.0579    3.2788    0.0000 C   0  0  2  0  0  0
    6.3881    2.5857    0.0000 C   0  0
    3.7276    3.9718    0.0000 O   0  0
    5.0349    4.7566    0.0000 C   0  0  2  0  0  0
    3.7666    5.5575    0.0000 O   0  0
    6.2215    3.9949    0.0000 C   0  0
    7.4825    4.6814    0.0000 C   0  0
    6.2620    6.9232    0.0000 C   0  0  1  0  0  0
    7.6887    7.3863    0.0000 O   0  0
    6.0912    8.2379    0.0000 C   0  0  2  0  0  0
    7.5974    9.0579    0.0000 C   0  0
    7.6558   10.4520    0.0000 C   0  0  1  0  0  0
    7.6760   11.9161    0.0000 O   0  0
    6.4150   11.2296    0.0000 C   0  0  2  0  0  0
    6.4544   12.6587    0.0000 C   0  0
    5.2136   13.4363    0.0000 C   0  0
    3.7075   12.6163    0.0000 C   0  0
    3.8974   11.2666    0.0000 C   0  0
    2.5838   10.5424    0.0000 O   0  0
    4.9089   10.4096    0.0000 C   0  0  1  0  0  0
    3.5953    9.6854    0.0000 C   0  0
    5.0988    9.0599    0.0000 C   0  0  1  0  0  0
    3.8378    8.3734    0.0000 C   0  0
    3.8144    6.9984    0.0000 C   0  0
    5.0010    6.2367    0.0000 C   0  0  2  0  0  0
    3.6930    5.5024    0.0000 C   0  0
    2.4616    3.1650    0.0000 O   0  0
    1.1965    2.3591    0.0000 C   0  0
   -0.1341    3.0517    0.0000 O   0  0
  1  2  1  0
  2  3  2  0
  3  4  1  0
  3  5  1  0
  5  6  1  1
  5  7  1  0
  7  8  1  0
  8  9  1  1
  8 10  1  0
  8 11  1  0
 11 12  1  6
 11 13  1  0
 13 14  1  0
 14 15  1  0
 15 16  1  1
 15 17  1  0
 17 18  1  1
 19 18  1  6
 19 20  1  0
 21 20  1  6
 21 19  1  0
 21 22  1  0
 22 23  1  0
 23 24  2  0
 24 25  1  0
 25 26  2  0
 25 27  1  0
 27 21  1  0
 27 28  1  6
 27 29  1  0
 29 17  1  0
 29 30  1  6
 30 31  1  0
 31 32  1  0
 32 11  1  0
 32 15  1  0
 32 33  1  6
  7 34  1  1
 34 35  1  0
 35  2  1  0
 35 36  2  0
M  END
> <assay_chembl_id>
CHEMBL4191629

> <assay_description>
Cytotoxicity against human 22Rv1 cells assessed as reduction in cell viability after 72 hrs by CellTiter96 AQueous one solution cell proliferation assay

> <document_journal>
J Nat Prod

> <molecule_chembl_id>
CHEMBL4207508

> <standard_value>
890

> <IC50_uM>
0.89

> <Activity>
Yes

> <Canonical_Smiles>
CC1=C(C)[C@H](O)[C@H]([C@](C)(O)[C@]2(O)CC[C@@]3(O)[C@@H]4C[C@H]5O[C@]56CC=CC(=O)[C@]6(C)[C@H]4CC[C@]23C)OC1=O

$$$$

  SciTegic03142313312D

 35 39  0  0  1  0            999 V2000
    5.7317   -2.7674    0.0000 C   0  0
    4.7263   -3.8805    0.0000 C   0  0
    5.1875   -5.3079    0.0000 C   0  0
    6.6542   -5.6221    0.0000 C   0  0
    4.1820   -6.4210    0.0000 C   0  0
    4.6432   -7.8483    0.0000 O   0  0
    2.7153   -6.1068    0.0000 O   0  0
    2.2540   -4.6794    0.0000 C   0  0  1  0  0  0
    0.7865   -4.3650    0.0000 C   0  0  2  0  0  0
   -0.2186   -5.4784    0.0000 C   0  0
    1.4566   -3.6227    0.0000 O   0  0
    0.3061   -2.9572    0.0000 C   0  0  2  0  0  0
   -0.6684   -2.7327    0.0000 O   0  0
    1.7979   -3.1140    0.0000 C   0  0
    2.4080   -1.7436    0.0000 C   0  0
    1.2990   -0.7500    0.0000 C   0  0  1  0  0  0
    2.6686   -0.1382    0.0000 O   0  0
    1.2990    0.7500    0.0000 C   0  0  2  0  0  0
    2.5981    1.5000    0.0000 C   0  0  1  0  0  0
    3.8971    0.7500    0.0000 O   0  0
    2.5981    3.0000    0.0000 C   0  0
    1.2990    3.7500    0.0000 C   0  0
    1.2990    5.2500    0.0000 C   0  0
    0.0000    6.0000    0.0000 C   0  0
   -1.2991    5.2500    0.0000 C   0  0
   -1.2991    3.7500    0.0000 C   0  0
   -2.5981    3.0000    0.0000 O   0  0
    0.0000    3.0000    0.0000 C   0  0  1  0  0  0
   -1.2991    2.2500    0.0000 C   0  0
    0.0000    1.5000    0.0000 C   0  0  1  0  0  0
   -1.2990    0.7500    0.0000 C   0  0
   -1.2990   -0.7500    0.0000 C   0  0
    0.0000   -1.5000    0.0000 C   0  0  2  0  0  0
   -0.8097   -2.0868    0.0000 C   0  0
    3.2595   -3.5663    0.0000 C   0  0
  1  2  1  0
  2  3  2  0
  3  4  1  0
  3  5  1  0
  5  6  2  0
  5  7  1  0
  8  7  1  1
  8  9  1  0
  9 10  1  6
  9 11  1  0
  9 12  1  0
 12 13  1  6
 12 14  1  0
 14 15  1  0
 15 16  1  0
 16 17  1  1
 18 16  1  1
 18 19  1  0
 19 20  1  6
 19 21  1  0
 21 22  2  0
 22 23  1  0
 23 24  1  0
 24 25  2  0
 25 26  1  0
 26 27  2  0
 26 28  1  0
 28 22  1  0
 28 29  1  6
 28 30  1  0
 30 18  1  0
 30 31  1  6
 31 32  1  0
 32 33  1  0
 33 12  1  0
 33 16  1  0
 33 34  1  6
  8 35  1  0
 35  2  1  0
M  END
> <assay_chembl_id>
CHEMBL4191629

> <assay_description>
Cytotoxicity against human 22Rv1 cells assessed as reduction in cell viability after 72 hrs by CellTiter96 AQueous one solution cell proliferation assay

> <document_journal>
J Nat Prod

> <molecule_chembl_id>
CHEMBL4216841

> <standard_value>
560

> <IC50_uM>
0.56

> <Activity>
Yes

> <Canonical_Smiles>
CC1=C(C)C(=O)O[C@@H]([C@](C)(O)[C@]2(O)CC[C@@]3(O)[C@@H]4[C@@H](O)C=C5CC=CC(=O)[C@]5(C)[C@H]4CC[C@]23C)C1

$$$$

  SciTegic03142313312D

 35 39  0  0  1  0            999 V2000
    5.7317   -2.7674    0.0000 C   0  0
    4.7263   -3.8805    0.0000 C   0  0
    5.1875   -5.3079    0.0000 C   0  0
    6.6542   -5.6221    0.0000 C   0  0
    4.1820   -6.4210    0.0000 C   0  0
    4.6432   -7.8483    0.0000 O   0  0
    2.7153   -6.1068    0.0000 O   0  0
    2.2540   -4.6794    0.0000 C   0  0  1  0  0  0
    0.7865   -4.3650    0.0000 C   0  0  2  0  0  0
   -0.2186   -5.4784    0.0000 C   0  0
    1.4566   -3.6227    0.0000 O   0  0
    0.3061   -2.9572    0.0000 C   0  0  2  0  0  0
   -0.6684   -2.7327    0.0000 O   0  0
    1.7979   -3.1140    0.0000 C   0  0
    2.4080   -1.7436    0.0000 C   0  0
    1.2990   -0.7500    0.0000 C   0  0  1  0  0  0
    2.6686   -0.1382    0.0000 O   0  0
    1.2990    0.7500    0.0000 C   0  0  2  0  0  0
    2.5981    1.5000    0.0000 C   0  0  1  0  0  0
    3.8971    0.7500    0.0000 O   0  0
    2.5981    3.0000    0.0000 C   0  0
    1.2990    3.7500    0.0000 C   0  0
    1.2990    5.2500    0.0000 C   0  0
    0.0000    6.0000    0.0000 C   0  0
   -1.2991    5.2500    0.0000 C   0  0
   -1.2991    3.7500    0.0000 C   0  0
   -2.5981    3.0000    0.0000 O   0  0
    0.0000    3.0000    0.0000 C   0  0  1  0  0  0
   -1.2991    2.2500    0.0000 C   0  0
    0.0000    1.5000    0.0000 C   0  0  1  0  0  0
   -1.2990    0.7500    0.0000 C   0  0
   -1.2990   -0.7500    0.0000 C   0  0
    0.0000   -1.5000    0.0000 C   0  0  2  0  0  0
   -0.8097   -2.0868    0.0000 C   0  0
    3.2595   -3.5663    0.0000 C   0  0
  1  2  1  0
  2  3  2  0
  3  4  1  0
  3  5  1  0
  5  6  2  0
  5  7  1  0
  8  7  1  1
  8  9  1  0
  9 10  1  6
  9 11  1  0
  9 12  1  0
 12 13  1  6
 12 14  1  0
 14 15  1  0
 15 16  1  0
 16 17  1  1
 18 16  1  1
 18 19  1  0
 19 20  1  6
 19 21  1  0
 21 22  2  0
 22 23  1  0
 23 24  2  0
 24 25  1  0
 25 26  1  0
 26 27  2  0
 26 28  1  0
 28 22  1  0
 28 29  1  6
 28 30  1  0
 30 18  1  0
 30 31  1  6
 31 32  1  0
 32 33  1  0
 33 12  1  0
 33 16  1  0
 33 34  1  6
  8 35  1  0
 35  2  1  0
M  END
> <assay_chembl_id>
CHEMBL4191629

> <assay_description>
Cytotoxicity against human 22Rv1 cells assessed as reduction in cell viability after 72 hrs by CellTiter96 AQueous one solution cell proliferation assay

> <document_journal>
J Nat Prod

> <molecule_chembl_id>
CHEMBL4211870

> <standard_value>
990

> <IC50_uM>
0.99

> <Activity>
Yes

> <Canonical_Smiles>
CC1=C(C)C(=O)O[C@@H]([C@](C)(O)[C@]2(O)CC[C@@]3(O)[C@@H]4[C@@H](O)C=C5C=CCC(=O)[C@]5(C)[C@H]4CC[C@]23C)C1

$$$$

  SciTegic03142313312D

 35 40  0  0  1  0            999 V2000
    2.7748    7.9473    0.0000 C   0  0
    4.0193    7.1099    0.0000 C   0  0  1  0  0  0
    3.9163    5.6134    0.0000 C   0  0
    5.1608    4.7761    0.0000 C   0  0  2  0  0  0
    5.0579    3.2788    0.0000 C   0  0  2  0  0  0
    6.3026    2.4418    0.0000 C   0  0
    3.8131    4.1158    0.0000 O   0  0
    3.7489    2.5923    0.0000 C   0  0  2  0  0  0
    2.4391    3.3233    0.0000 O   0  0
    4.9853    1.9143    0.0000 C   0  0
    4.9853    0.4786    0.0000 C   0  0
    2.4328    0.4786    0.0000 C   0  0  1  0  0  0
    2.7082   -0.9959    0.0000 O   0  0
    1.1965    0.0000    0.0000 C   0  0  2  0  0  0
    1.1965   -1.7149    0.0000 C   0  0
    0.0000   -2.4328    0.0000 C   0  0  1  0  0  0
   -1.2762   -3.1507    0.0000 O   0  0
   -1.2762   -1.7149    0.0000 C   0  0  2  0  0  0
   -2.5126   -2.4328    0.0000 C   0  0
   -3.7888   -1.7149    0.0000 C   0  0
   -3.7888    0.0000    0.0000 C   0  0
   -2.5126    0.4786    0.0000 C   0  0
   -2.5047    1.9786    0.0000 O   0  0
   -1.2762    0.0000    0.0000 C   0  0  1  0  0  0
   -1.2683    1.5000    0.0000 C   0  0
    0.0000    0.4786    0.0000 C   0  0  1  0  0  0
    0.0000    1.9143    0.0000 C   0  0
    1.1965    2.5923    0.0000 C   0  0
    2.4328    1.9143    0.0000 C   0  0  2  0  0  0
    1.1242    1.1812    0.0000 C   0  0
    6.5083    5.4351    0.0000 O   0  0
    6.6112    6.9316    0.0000 C   0  0
    7.9587    7.5907    0.0000 O   0  0
    5.3667    7.7690    0.0000 C   0  0  2  0  0  0
    5.4697    9.2655    0.0000 C   0  0
  2  1  1  6
  2  3  1  0
  4  3  1  1
  4  5  1  0
  5  6  1  6
  5  7  1  0
  5  8  1  0
  8  9  1  1
  8 10  1  0
 10 11  1  0
 11 12  1  0
 12 13  1  6
 12 14  1  0
 14 15  1  6
 16 15  1  1
 16 17  1  0
 18 17  1  1
 18 16  1  0
 18 19  1  0
 19 20  1  0
 20 21  2  0
 21 22  1  0
 22 23  2  0
 22 24  1  0
 24 18  1  0
 24 25  1  1
 24 26  1  0
 26 14  1  0
 26 27  1  1
 27 28  1  0
 28 29  1  0
 29  8  1  0
 29 12  1  0
 29 30  1  1
  4 31  1  0
 31 32  1  0
 32 33  2  0
 32 34  1  0
 34  2  1  0
 34 35  1  1
M  END
> <assay_chembl_id>
CHEMBL4191629

> <assay_description>
Cytotoxicity against human 22Rv1 cells assessed as reduction in cell viability after 72 hrs by CellTiter96 AQueous one solution cell proliferation assay

> <document_journal>
J Nat Prod

> <molecule_chembl_id>
CHEMBL4203685

> <standard_value>
210

> <IC50_uM>
0.21

> <Activity>
Yes

> <Canonical_Smiles>
C[C@H]1C[C@H]([C@](C)(O)[C@]2(O)CC[C@@]3(O)[C@@H]4C[C@H]5O[C@]56CC=CC(=O)[C@]6(C)[C@H]4CC[C@]23C)OC(=O)[C@@H]1C

$$$$

  SciTegic03142313312D

 36 41  0  0  1  0            999 V2000
    7.9587    7.5907    0.0000 C   0  0
    6.6112    6.9316    0.0000 C   0  0
    5.3667    7.7690    0.0000 C   0  0
    5.4697    9.2655    0.0000 C   0  0
    4.0193    7.1099    0.0000 C   0  0
    2.7748    7.9473    0.0000 O   0  0
    3.9163    5.6134    0.0000 O   0  0
    5.1608    4.7761    0.0000 C   0  0  1  0  0  0
    5.0579    3.2788    0.0000 C   0  0  2  0  0  0
    6.3026    2.4418    0.0000 C   0  0
    3.8131    4.1158    0.0000 O   0  0
    3.7489    2.5923    0.0000 C   0  0  2  0  0  0
    2.4391    3.3233    0.0000 O   0  0
    4.9853    1.9143    0.0000 C   0  0
    4.9853    0.4786    0.0000 C   0  0
    2.4328    0.4786    0.0000 C   0  0  1  0  0  0
    2.7082   -0.9959    0.0000 O   0  0
    1.1965    0.0000    0.0000 C   0  0  2  0  0  0
    1.1965   -1.7149    0.0000 C   0  0
    0.0000   -2.4328    0.0000 C   0  0  1  0  0  0
   -1.2762   -3.1507    0.0000 O   0  0
   -1.2762   -1.7149    0.0000 C   0  0  2  0  0  0
   -2.5126   -2.4328    0.0000 C   0  0  1  0  0  0
   -2.5023   -3.9328    0.0000 O   0  0
   -3.7888   -1.7149    0.0000 C   0  0
   -3.7888    0.0000    0.0000 C   0  0
   -2.5126    0.4786    0.0000 C   0  0
   -2.5047    1.9786    0.0000 O   0  0
   -1.2762    0.0000    0.0000 C   0  0  1  0  0  0
   -1.2683    1.5000    0.0000 C   0  0
    0.0000    0.4786    0.0000 C   0  0  1  0  0  0
    0.0000    1.9143    0.0000 C   0  0
    1.1965    2.5923    0.0000 C   0  0
    2.4328    1.9143    0.0000 C   0  0  2  0  0  0
    1.1242    1.1812    0.0000 C   0  0
    6.5083    5.4351    0.0000 C   0  0
  1  2  1  0
  2  3  2  0
  3  4  1  0
  3  5  1  0
  5  6  2  0
  5  7  1  0
  8  7  1  6
  8  9  1  0
  9 10  1  6
  9 11  1  0
  9 12  1  0
 12 13  1  1
 12 14  1  0
 14 15  1  0
 15 16  1  0
 16 17  1  6
 16 18  1  0
 18 19  1  6
 20 19  1  1
 20 21  1  0
 22 21  1  1
 22 20  1  0
 22 23  1  0
 23 24  1  1
 23 25  1  0
 25 26  2  0
 26 27  1  0
 27 28  2  0
 27 29  1  0
 29 22  1  0
 29 30  1  1
 29 31  1  0
 31 18  1  0
 31 32  1  1
 32 33  1  0
 33 34  1  0
 34 12  1  0
 34 16  1  0
 34 35  1  1
  8 36  1  0
 36  2  1  0
M  END
> <assay_chembl_id>
CHEMBL4191629

> <assay_description>
Cytotoxicity against human 22Rv1 cells assessed as reduction in cell viability after 72 hrs by CellTiter96 AQueous one solution cell proliferation assay

> <document_journal>
J Nat Prod

> <molecule_chembl_id>
CHEMBL502563

> <standard_value>
90

> <IC50_uM>
0.09

> <Activity>
Yes

> <Canonical_Smiles>
CC1=C(C)C(=O)O[C@@H]([C@](C)(O)[C@]2(O)CC[C@@]3(O)[C@@H]4C[C@H]5O[C@]56[C@@H](O)C=CC(=O)[C@]6(C)[C@H]4CC[C@]23C)C1

$$$$

  SciTegic03142313312D

 35 40  0  0  1  0            999 V2000
    7.9587    7.5907    0.0000 C   0  0
    6.6112    6.9316    0.0000 C   0  0
    5.3667    7.7690    0.0000 C   0  0
    5.4697    9.2655    0.0000 C   0  0
    4.0193    7.1099    0.0000 C   0  0
    2.7748    7.9473    0.0000 O   0  0
    3.9163    5.6134    0.0000 O   0  0
    5.1608    4.7761    0.0000 C   0  0  1  0  0  0
    5.0579    3.2788    0.0000 C   0  0  2  0  0  0
    6.3026    2.4418    0.0000 C   0  0
    3.8131    4.1158    0.0000 O   0  0
    3.7489    2.5923    0.0000 C   0  0  2  0  0  0
    2.4391    3.3233    0.0000 O   0  0
    4.9853    1.9143    0.0000 C   0  0
    4.9853    0.4786    0.0000 C   0  0
    2.4328    0.4786    0.0000 C   0  0  1  0  0  0
    2.7082   -0.9959    0.0000 O   0  0
    1.1965    0.0000    0.0000 C   0  0  2  0  0  0
    1.1965   -1.7149    0.0000 C   0  0
    0.0000   -2.4328    0.0000 C   0  0  1  0  0  0
   -1.2762   -3.1507    0.0000 O   0  0
   -1.2762   -1.7149    0.0000 C   0  0  2  0  0  0
   -2.5126   -2.4328    0.0000 C   0  0
   -3.7888   -1.7149    0.0000 C   0  0
   -3.7888    0.0000    0.0000 C   0  0
   -2.5126    0.4786    0.0000 C   0  0
   -2.5047    1.9786    0.0000 O   0  0
   -1.2762    0.0000    0.0000 C   0  0  1  0  0  0
   -1.2683    1.5000    0.0000 C   0  0
    0.0000    0.4786    0.0000 C   0  0  1  0  0  0
    0.0000    1.9143    0.0000 C   0  0
    1.1965    2.5923    0.0000 C   0  0
    2.4328    1.9143    0.0000 C   0  0  2  0  0  0
    1.1242    1.1812    0.0000 C   0  0
    6.5083    5.4351    0.0000 C   0  0
  1  2  1  0
  2  3  2  0
  3  4  1  0
  3  5  1  0
  5  6  2  0
  5  7  1  0
  8  7  1  6
  8  9  1  0
  9 10  1  6
  9 11  1  0
  9 12  1  0
 12 13  1  1
 12 14  1  0
 14 15  1  0
 15 16  1  0
 16 17  1  6
 16 18  1  0
 18 19  1  6
 20 19  1  1
 20 21  1  0
 22 21  1  1
 22 20  1  0
 22 23  1  0
 23 24  1  0
 24 25  2  0
 25 26  1  0
 26 27  2  0
 26 28  1  0
 28 22  1  0
 28 29  1  1
 28 30  1  0
 30 18  1  0
 30 31  1  1
 31 32  1  0
 32 33  1  0
 33 12  1  0
 33 16  1  0
 33 34  1  1
  8 35  1  0
 35  2  1  0
M  END
> <assay_chembl_id>
CHEMBL4191629

> <assay_description>
Cytotoxicity against human 22Rv1 cells assessed as reduction in cell viability after 72 hrs by CellTiter96 AQueous one solution cell proliferation assay

> <document_journal>
J Nat Prod

> <molecule_chembl_id>
CHEMBL1097107

> <standard_value>
70

> <IC50_uM>
0.07

> <Activity>
Yes

> <Canonical_Smiles>
CC1=C(C)C(=O)O[C@@H]([C@](C)(O)[C@]2(O)CC[C@@]3(O)[C@@H]4C[C@H]5O[C@]56CC=CC(=O)[C@]6(C)[C@H]4CC[C@]23C)C1

$$$$

  SciTegic03142313312D

 37 42  0  0  1  0            999 V2000
   -3.7854   -4.6998    0.0000 C   0  0
   -2.4956   -3.9342    0.0000 O   0  0
   -2.5126   -2.4328    0.0000 C   0  0  1  0  0  0
   -3.7888   -1.7149    0.0000 C   0  0
   -3.7888    0.0000    0.0000 C   0  0
   -2.5126    0.4786    0.0000 C   0  0
   -2.5047    1.9786    0.0000 O   0  0
   -1.2762    0.0000    0.0000 C   0  0  2  0  0  0
   -1.2683    1.5000    0.0000 C   0  0
    0.0000    0.4786    0.0000 C   0  0  1  0  0  0
    0.0000    1.9143    0.0000 C   0  0
    1.1965    2.5923    0.0000 C   0  0
    2.4328    1.9143    0.0000 C   0  0  2  0  0  0
    2.4522    3.4142    0.0000 C   0  0
    3.7489    2.5923    0.0000 C   0  0  2  0  0  0
    2.4391    3.3233    0.0000 O   0  0
    5.0579    3.2788    0.0000 C   0  0  1  0  0  0
    6.3663    4.0122    0.0000 C   0  0
    5.0771    4.7787    0.0000 O   0  0
    6.3481    2.5121    0.0000 C   0  0  1  0  0  0
    6.3293    1.0123    0.0000 C   0  0
    7.6189    0.2461    0.0000 C   0  0
    7.6001   -1.2538    0.0000 C   0  0
    8.9272    0.9797    0.0000 C   0  0
   10.2167    0.2135    0.0000 C   0  0
    8.9460    2.4796    0.0000 C   0  0
   10.2543    3.2133    0.0000 O   0  0
    7.6564    3.2458    0.0000 O   0  0
    4.9853    1.9143    0.0000 C   0  0
    4.9853    0.4786    0.0000 C   0  0
    2.4328    0.4786    0.0000 C   0  0  2  0  0  0
    2.7082   -0.9959    0.0000 O   0  0
    1.1965    0.0000    0.0000 C   0  0  2  0  0  0
    1.1965   -1.7149    0.0000 C   0  0
    0.0000   -2.4328    0.0000 C   0  0  1  0  0  0
   -1.2762   -3.1507    0.0000 O   0  0
   -1.2762   -1.7149    0.0000 C   0  0  2  0  0  0
  1  2  1  0
  3  2  1  1
  3  4  1  0
  4  5  2  0
  5  6  1  0
  6  7  2  0
  6  8  1  0
  8  9  1  1
  8 10  1  0
 10 11  1  1
 11 12  1  0
 12 13  1  0
 13 14  1  1
 13 15  1  0
 15 16  1  1
 15 17  1  0
 17 18  1  6
 17 19  1  0
 17 20  1  0
 20 21  1  6
 21 22  1  0
 22 23  1  0
 22 24  2  0
 24 25  1  0
 24 26  1  0
 26 27  2  0
 26 28  1  0
 28 20  1  0
 15 29  1  0
 29 30  1  0
 30 31  1  0
 31 13  1  0
 31 32  1  6
 31 33  1  0
 33 10  1  0
 33 34  1  6
 35 34  1  1
 35 36  1  0
 37 36  1  1
 37  3  1  0
 37 35  1  0
 37  8  1  0
M  END
> <assay_chembl_id>
CHEMBL4191629

> <assay_description>
Cytotoxicity against human 22Rv1 cells assessed as reduction in cell viability after 72 hrs by CellTiter96 AQueous one solution cell proliferation assay

> <document_journal>
J Nat Prod

> <molecule_chembl_id>
CHEMBL4203165

> <standard_value>
240

> <IC50_uM>
0.24

> <Activity>
Yes

> <Canonical_Smiles>
CO[C@H]1C=CC(=O)[C@]2(C)[C@H]3CC[C@]4(C)[C@](O)([C@@](C)(O)[C@H]5CC(C)=C(C)C(=O)O5)CC[C@@]4(O)[C@@H]3C[C@H]3O[C@]132

$$$$

  SciTegic03142313312D

 36 41  0  0  1  0            999 V2000
    7.9587    7.5907    0.0000 C   0  0
    6.6112    6.9316    0.0000 C   0  0
    5.3667    7.7690    0.0000 C   0  0
    5.4697    9.2655    0.0000 C   0  0
    4.0193    7.1099    0.0000 C   0  0
    2.7748    7.9473    0.0000 O   0  0
    3.9163    5.6134    0.0000 O   0  0
    5.1608    4.7761    0.0000 C   0  0  1  0  0  0
    5.0579    3.2788    0.0000 C   0  0  2  0  0  0
    6.3026    2.4418    0.0000 C   0  0
    3.8131    4.1158    0.0000 O   0  0
    3.7489    2.5923    0.0000 C   0  0  2  0  0  0
    2.4391    3.3233    0.0000 O   0  0
    4.9853    1.9143    0.0000 C   0  0
    4.9853    0.4786    0.0000 C   0  0
    2.4328    0.4786    0.0000 C   0  0  1  0  0  0
    2.7082   -0.9959    0.0000 O   0  0
    1.1965    0.0000    0.0000 C   0  0  2  0  0  0
    1.1965   -1.7149    0.0000 C   0  0  1  0  0  0
    2.5018   -2.4540    0.0000 O   0  0
    0.0000   -2.4328    0.0000 C   0  0  1  0  0  0
   -1.2762   -3.1507    0.0000 O   0  0
   -1.2762   -1.7149    0.0000 C   0  0  2  0  0  0
   -2.5126   -2.4328    0.0000 C   0  0
   -3.7888   -1.7149    0.0000 C   0  0
   -3.7888    0.0000    0.0000 C   0  0
   -2.5126    0.4786    0.0000 C   0  0
   -2.5047    1.9786    0.0000 O   0  0
   -1.2762    0.0000    0.0000 C   0  0  1  0  0  0
   -1.2683    1.5000    0.0000 C   0  0
    0.0000    0.4786    0.0000 C   0  0  1  0  0  0
    0.0000    1.9143    0.0000 C   0  0
    1.1965    2.5923    0.0000 C   0  0
    2.4328    1.9143    0.0000 C   0  0  2  0  0  0
    1.1242    1.1812    0.0000 C   0  0
    6.5083    5.4351    0.0000 C   0  0
  1  2  1  0
  2  3  2  0
  3  4  1  0
  3  5  1  0
  5  6  2  0
  5  7  1  0
  8  7  1  6
  8  9  1  0
  9 10  1  6
  9 11  1  0
  9 12  1  0
 12 13  1  1
 12 14  1  0
 14 15  1  0
 15 16  1  0
 16 17  1  6
 18 16  1  6
 18 19  1  0
 19 20  1  1
 19 21  1  0
 21 22  1  1
 23 22  1  1
 23 21  1  0
 23 24  1  0
 24 25  1  0
 25 26  2  0
 26 27  1  0
 27 28  2  0
 27 29  1  0
 29 23  1  0
 29 30  1  1
 29 31  1  0
 31 18  1  0
 31 32  1  1
 32 33  1  0
 33 34  1  0
 34 12  1  0
 34 16  1  0
 34 35  1  1
  8 36  1  0
 36  2  1  0
M  END
> <assay_chembl_id>
CHEMBL4191629

> <assay_description>
Cytotoxicity against human 22Rv1 cells assessed as reduction in cell viability after 72 hrs by CellTiter96 AQueous one solution cell proliferation assay

> <document_journal>
J Nat Prod

> <molecule_chembl_id>
CHEMBL4213383

> <standard_value>
260

> <IC50_uM>
0.26

> <Activity>
Yes

> <Canonical_Smiles>
CC1=C(C)C(=O)O[C@@H]([C@](C)(O)[C@]2(O)CC[C@@]3(O)[C@@H]4[C@@H](O)[C@H]5O[C@]56CC=CC(=O)[C@]6(C)[C@H]4CC[C@]23C)C1

$$$$

  SciTegic03142313312D

 35 39  0  0  1  0            999 V2000
    5.7317   -2.7674    0.0000 C   0  0
    4.7263   -3.8805    0.0000 C   0  0
    5.1875   -5.3079    0.0000 C   0  0
    6.6542   -5.6221    0.0000 C   0  0
    4.1820   -6.4210    0.0000 C   0  0
    4.6432   -7.8483    0.0000 O   0  0
    2.7153   -6.1068    0.0000 O   0  0
    2.2540   -4.6794    0.0000 C   0  0  1  0  0  0
    0.7865   -4.3650    0.0000 C   0  0  2  0  0  0
   -0.2186   -5.4784    0.0000 C   0  0
    1.4566   -3.6227    0.0000 O   0  0
    0.3061   -2.9572    0.0000 C   0  0  2  0  0  0
   -0.6684   -2.7327    0.0000 O   0  0
    1.7979   -3.1140    0.0000 C   0  0
    2.4080   -1.7436    0.0000 C   0  0
    1.2990   -0.7500    0.0000 C   0  0  1  0  0  0
    2.6686   -0.1382    0.0000 O   0  0
    1.2990    0.7500    0.0000 C   0  0  2  0  0  0
    2.5981    1.5000    0.0000 C   0  0
    2.5981    3.0000    0.0000 C   0  0
    1.2990    3.7500    0.0000 C   0  0
    1.2990    5.2500    0.0000 C   0  0  1  0  0  0
    2.5980    6.0000    0.0000 O   0  0
    0.0000    6.0000    0.0000 C   0  0
   -1.2991    5.2500    0.0000 C   0  0
   -1.2991    3.7500    0.0000 C   0  0
   -2.5981    3.0000    0.0000 O   0  0
    0.0000    3.0000    0.0000 C   0  0  1  0  0  0
   -1.2991    2.2500    0.0000 C   0  0
    0.0000    1.5000    0.0000 C   0  0  1  0  0  0
   -1.2990    0.7500    0.0000 C   0  0
   -1.2990   -0.7500    0.0000 C   0  0
    0.0000   -1.5000    0.0000 C   0  0  2  0  0  0
   -0.8097   -2.0868    0.0000 C   0  0
    3.2595   -3.5663    0.0000 C   0  0
  1  2  1  0
  2  3  2  0
  3  4  1  0
  3  5  1  0
  5  6  2  0
  5  7  1  0
  8  7  1  1
  8  9  1  0
  9 10  1  6
  9 11  1  0
  9 12  1  0
 12 13  1  6
 12 14  1  0
 14 15  1  0
 15 16  1  0
 16 17  1  1
 16 18  1  0
 18 19  1  1
 19 20  1  0
 20 21  2  0
 21 22  1  0
 22 23  1  6
 22 24  1  0
 24 25  2  0
 25 26  1  0
 26 27  2  0
 26 28  1  0
 28 21  1  0
 28 29  1  6
 28 30  1  0
 30 18  1  0
 30 31  1  6
 31 32  1  0
 32 33  1  0
 33 12  1  0
 33 16  1  0
 33 34  1  6
  8 35  1  0
 35  2  1  0
M  END
> <assay_chembl_id>
CHEMBL4191629

> <assay_description>
Cytotoxicity against human 22Rv1 cells assessed as reduction in cell viability after 72 hrs by CellTiter96 AQueous one solution cell proliferation assay

> <document_journal>
J Nat Prod

> <molecule_chembl_id>
CHEMBL4208456

> <standard_value>
70

> <IC50_uM>
0.07

> <Activity>
Yes

> <Canonical_Smiles>
CC1=C(C)C(=O)O[C@@H]([C@](C)(O)[C@]2(O)CC[C@@]3(O)[C@@H]4CC=C5[C@@H](O)C=CC(=O)[C@]5(C)[C@H]4CC[C@]23C)C1

$$$$

  SciTegic03142313312D

 35 39  0  0  1  0            999 V2000
    6.6542   -5.6221    0.0000 C   0  0
    5.1875   -5.3079    0.0000 C   0  0
    4.1820   -6.4210    0.0000 C   0  0
    4.6405   -7.8501    0.0000 C   0  0
    3.6335   -8.9617    0.0000 O   0  0
    2.7153   -6.1068    0.0000 C   0  0
    2.2540   -4.6794    0.0000 C   0  0  2  0  0  0
    0.7865   -4.3650    0.0000 C   0  0  2  0  0  0
   -0.2186   -5.4784    0.0000 C   0  0
    1.4566   -3.6227    0.0000 O   0  0
    0.3061   -2.9572    0.0000 C   0  0  2  0  0  0
   -0.6684   -2.7327    0.0000 O   0  0
    1.7979   -3.1140    0.0000 C   0  0
    2.4080   -1.7436    0.0000 C   0  0
    1.2990   -0.7500    0.0000 C   0  0  1  0  0  0
    2.6686   -0.1382    0.0000 O   0  0
    1.2990    0.7500    0.0000 C   0  0  2  0  0  0
    2.5981    1.5000    0.0000 C   0  0
    2.5981    3.0000    0.0000 C   0  0
    1.2990    3.7500    0.0000 C   0  0
    1.2990    5.2500    0.0000 C   0  0
    0.0000    6.0000    0.0000 C   0  0
   -1.2991    5.2500    0.0000 C   0  0
   -1.2991    3.7500    0.0000 C   0  0
   -2.5981    3.0000    0.0000 O   0  0
    0.0000    3.0000    0.0000 C   0  0  1  0  0  0
   -1.2991    2.2500    0.0000 C   0  0
    0.0000    1.5000    0.0000 C   0  0  1  0  0  0
   -1.2990    0.7500    0.0000 C   0  0
   -1.2990   -0.7500    0.0000 C   0  0
    0.0000   -1.5000    0.0000 C   0  0  2  0  0  0
   -0.8097   -2.0868    0.0000 C   0  0
    3.2595   -3.5663    0.0000 O   0  0
    4.7263   -3.8805    0.0000 C   0  0
    5.7317   -2.7674    0.0000 O   0  0
  1  2  1  0
  2  3  2  0
  3  4  1  0
  4  5  1  0
  3  6  1  0
  7  6  1  6
  7  8  1  0
  8  9  1  6
  8 10  1  0
  8 11  1  0
 11 12  1  6
 11 13  1  0
 13 14  1  0
 14 15  1  0
 15 16  1  1
 15 17  1  0
 17 18  1  1
 18 19  1  0
 19 20  2  0
 20 21  1  0
 21 22  1  0
 22 23  2  0
 23 24  1  0
 24 25  2  0
 24 26  1  0
 26 20  1  0
 26 27  1  6
 26 28  1  0
 28 17  1  0
 28 29  1  6
 29 30  1  0
 30 31  1  0
 31 11  1  0
 31 15  1  0
 31 32  1  6
  7 33  1  0
 33 34  1  0
 34  2  1  0
 34 35  2  0
M  END
> <assay_chembl_id>
CHEMBL4191629

> <assay_description>
Cytotoxicity against human 22Rv1 cells assessed as reduction in cell viability after 72 hrs by CellTiter96 AQueous one solution cell proliferation assay

> <document_journal>
J Nat Prod

> <molecule_chembl_id>
CHEMBL4218593

> <standard_value>
210

> <IC50_uM>
0.21

> <Activity>
Yes

> <Canonical_Smiles>
CC1=C(CO)C[C@H]([C@](C)(O)[C@]2(O)CC[C@@]3(O)[C@@H]4CC=C5CC=CC(=O)[C@]5(C)[C@H]4CC[C@]23C)OC1=O

$$$$

  SciTegic03142313312D

 34 38  0  0  1  0            999 V2000
    5.7317   -2.7674    0.0000 C   0  0
    4.7263   -3.8805    0.0000 C   0  0
    5.1875   -5.3079    0.0000 C   0  0
    6.6542   -5.6221    0.0000 C   0  0
    4.1820   -6.4210    0.0000 C   0  0
    4.6432   -7.8483    0.0000 O   0  0
    2.7153   -6.1068    0.0000 O   0  0
    2.2540   -4.6794    0.0000 C   0  0  1  0  0  0
    0.7865   -4.3650    0.0000 C   0  0  2  0  0  0
   -0.2186   -5.4784    0.0000 C   0  0
    1.4566   -3.6227    0.0000 O   0  0
    0.3061   -2.9572    0.0000 C   0  0  2  0  0  0
   -0.6684   -2.7327    0.0000 O   0  0
    1.7979   -3.1140    0.0000 C   0  0
    2.4080   -1.7436    0.0000 C   0  0
    1.2990   -0.7500    0.0000 C   0  0  1  0  0  0
    2.6686   -0.1382    0.0000 O   0  0
    1.2990    0.7500    0.0000 C   0  0  2  0  0  0
    2.5981    1.5000    0.0000 C   0  0
    2.5981    3.0000    0.0000 C   0  0
    1.2990    3.7500    0.0000 C   0  0
    1.2990    5.2500    0.0000 C   0  0
    0.0000    6.0000    0.0000 C   0  0
   -1.2991    5.2500    0.0000 C   0  0
   -1.2991    3.7500    0.0000 C   0  0
   -2.5981    3.0000    0.0000 O   0  0
    0.0000    3.0000    0.0000 C   0  0  1  0  0  0
   -1.2991    2.2500    0.0000 C   0  0
    0.0000    1.5000    0.0000 C   0  0  1  0  0  0
   -1.2990    0.7500    0.0000 C   0  0
   -1.2990   -0.7500    0.0000 C   0  0
    0.0000   -1.5000    0.0000 C   0  0  2  0  0  0
   -0.8097   -2.0868    0.0000 C   0  0
    3.2595   -3.5663    0.0000 C   0  0
  1  2  1  0
  2  3  2  0
  3  4  1  0
  3  5  1  0
  5  6  2  0
  5  7  1  0
  8  7  1  1
  8  9  1  0
  9 10  1  6
  9 11  1  0
  9 12  1  0
 12 13  1  6
 12 14  1  0
 14 15  1  0
 15 16  1  0
 16 17  1  1
 16 18  1  0
 18 19  1  1
 19 20  1  0
 20 21  2  0
 21 22  1  0
 22 23  1  0
 23 24  2  0
 24 25  1  0
 25 26  2  0
 25 27  1  0
 27 21  1  0
 27 28  1  6
 27 29  1  0
 29 18  1  0
 29 30  1  6
 30 31  1  0
 31 32  1  0
 32 12  1  0
 32 16  1  0
 32 33  1  6
  8 34  1  0
 34  2  1  0
M  END
> <assay_chembl_id>
CHEMBL4191629

> <assay_description>
Cytotoxicity against human 22Rv1 cells assessed as reduction in cell viability after 72 hrs by CellTiter96 AQueous one solution cell proliferation assay

> <document_journal>
J Nat Prod

> <molecule_chembl_id>
CHEMBL488913

> <standard_value>
70

> <IC50_uM>
0.07

> <Activity>
Yes

> <Canonical_Smiles>
CC1=C(C)C(=O)O[C@@H]([C@](C)(O)[C@]2(O)CC[C@@]3(O)[C@@H]4CC=C5CC=CC(=O)[C@]5(C)[C@H]4CC[C@]23C)C1

$$$$

  SciTegic03142313312D

 39 44  0  0  1  0            999 V2000
    2.4750    6.4159    0.0000 C   0  0
    1.1689    5.6782    0.0000 C   0  0
   -0.1227    6.4410    0.0000 O   0  0
    1.1551    4.1775    0.0000 O   0  0
    2.4474    3.4143    0.0000 C   0  0
    2.4328    1.9143    0.0000 C   0  0  2  0  0  0
    1.1965    2.5923    0.0000 C   0  0
    0.0000    1.9143    0.0000 C   0  0
    0.0000    0.4786    0.0000 C   0  0  1  0  0  0
    1.1965    0.0000    0.0000 C   0  0  1  0  0  0
    1.1965   -1.7149    0.0000 C   0  0
    0.0000   -2.4328    0.0000 C   0  0  1  0  0  0
   -1.2762   -3.1507    0.0000 O   0  0
   -1.2762   -1.7149    0.0000 C   0  0  2  0  0  0
   -2.5126   -2.4328    0.0000 C   0  0
   -3.7888   -1.7149    0.0000 C   0  0
   -3.7888    0.0000    0.0000 C   0  0
   -2.5126    0.4786    0.0000 C   0  0
   -2.5047    1.9786    0.0000 O   0  0
   -1.2762    0.0000    0.0000 C   0  0  2  0  0  0
   -1.2683    1.5000    0.0000 C   0  0
    2.4328    0.4786    0.0000 C   0  0  1  0  0  0
    2.7082   -0.9959    0.0000 O   0  0
    4.9853    0.4786    0.0000 C   0  0
    4.9853    1.9143    0.0000 C   0  0
    3.7489    2.5923    0.0000 C   0  0  2  0  0  0
    2.8757    3.0797    0.0000 O   0  0
    5.0579    3.2788    0.0000 C   0  0  1  0  0  0
    6.3663    4.0122    0.0000 C   0  0
    5.0771    4.7787    0.0000 O   0  0
    6.3481    2.5121    0.0000 C   0  0  1  0  0  0
    6.3293    1.0123    0.0000 C   0  0
    7.6189    0.2461    0.0000 C   0  0
    7.6001   -1.2538    0.0000 C   0  0
    8.9272    0.9797    0.0000 C   0  0
   10.2167    0.2135    0.0000 C   0  0
    8.9460    2.4796    0.0000 C   0  0
   10.2543    3.2133    0.0000 O   0  0
    7.6564    3.2458    0.0000 O   0  0
  1  2  1  0
  2  3  2  0
  2  4  1  0
  4  5  1  0
  6  5  1  1
  6  7  1  0
  7  8  1  0
  9  8  1  1
  9 10  1  0
 10 11  1  6
 12 11  1  1
 12 13  1  0
 14 13  1  1
 14 12  1  0
 14 15  1  0
 15 16  1  0
 16 17  2  0
 17 18  1  0
 18 19  2  0
 18 20  1  0
 20  9  1  0
 20 14  1  0
 20 21  1  1
 10 22  1  0
 22  6  1  0
 22 23  1  6
 22 24  1  0
 24 25  1  0
 25 26  1  0
 26  6  1  0
 26 27  1  1
 26 28  1  0
 28 29  1  6
 28 30  1  0
 28 31  1  0
 31 32  1  6
 32 33  1  0
 33 34  1  0
 33 35  2  0
 35 36  1  0
 35 37  1  0
 37 38  2  0
 37 39  1  0
 39 31  1  0
M  END
> <assay_chembl_id>
CHEMBL4191629

> <assay_description>
Cytotoxicity against human 22Rv1 cells assessed as reduction in cell viability after 72 hrs by CellTiter96 AQueous one solution cell proliferation assay

> <document_journal>
J Nat Prod

> <molecule_chembl_id>
CHEMBL3605565

> <standard_value>
30

> <IC50_uM>
0.03

> <Activity>
Yes

> <Canonical_Smiles>
CC(=O)OC[C@]12CC[C@H]3[C@@H](C[C@H]4O[C@]45CC=CC(=O)[C@]35C)[C@]1(O)CC[C@@]2(O)[C@@](C)(O)[C@H]1CC(C)=C(C)C(=O)O1

$$$$

  SciTegic03142313312D

 30 32  0  0  0  0            999 V2000
    3.8983   -0.7459    0.0000 C   0  0
    2.6003   -1.4977    0.0000 O   0  0
    1.2990   -0.7500    0.0000 C   0  0
    1.2990    0.7500    0.0000 C   0  0
    0.0000    1.5000    0.0000 C   0  0
   -1.2990    0.7500    0.0000 C   0  0
   -2.6003    1.4977    0.0000 C   0  0
   -3.8990    0.7455    0.0000 N   0  0
   -4.0317   -0.7359    0.0000 N   0  0
   -5.4979   -1.0529    0.0000 N   0  0
   -6.2524    0.2436    0.0000 C   0  0
   -7.7447    0.3952    0.0000 O   0  0
   -5.2526    1.3618    0.0000 C   0  0
   -5.5549    2.8291    0.0000 C   0  0
   -6.9786    3.3012    0.0000 O   0  0
   -4.4338    3.8270    0.0000 N   0  0
   -4.7366    5.2970    0.0000 C   0  0
   -3.6176    6.2960    0.0000 C   0  0
   -3.9232    7.7646    0.0000 C   0  0
   -5.3478    8.2342    0.0000 C   0  0
   -6.4668    7.2353    0.0000 C   0  0
   -7.8922    7.7052    0.0000 C   0  0
   -8.1987    9.1735    0.0000 F   0  0
   -9.0109    6.7059    0.0000 F   0  0
   -9.3170    8.1741    0.0000 F   0  0
   -6.1612    5.7667    0.0000 C   0  0
   -1.2990   -0.7500    0.0000 C   0  0
    0.0000   -1.5000    0.0000 C   0  0
   -0.0031   -3.0008    0.0000 O   0  0
   -1.3032   -3.7490    0.0000 C   0  0
  1  2  1  0
  2  3  1  0
  3  4  2  0
  4  5  1  0
  5  6  2  0
  6  7  1  0
  7  8  1  0
  8  9  1  0
  9 10  2  0
 10 11  1  0
 11 12  1  0
 11 13  2  0
 13  8  1  0
 13 14  1  0
 14 15  2  0
 14 16  1  0
 16 17  1  0
 17 18  2  0
 18 19  1  0
 19 20  2  0
 20 21  1  0
 21 22  1  0
 22 23  1  0
 22 24  1  0
 22 25  1  0
 21 26  2  0
 26 17  1  0
  6 27  1  0
 27 28  2  0
 28  3  1  0
 28 29  1  0
 29 30  1  0
M  END
> <assay_chembl_id>
CHEMBL4231821

> <assay_description>
Antiproliferative activity against human 22Rv1 cells after 72 hrs by sulforhodamine B colorimetric assay

> <document_journal>
Eur J Med Chem

> <molecule_chembl_id>
CHEMBL4238142

> <standard_value>
59190

> <IC50_uM>
59.19

> <Activity>
No

> <Canonical_Smiles>
COc1ccc(Cn2nnc(O)c2C(=O)Nc2cccc(C(F)(F)F)c2)cc1OC

$$$$

  SciTegic03142313312D

 31 33  0  0  0  0            999 V2000
    1.2948   -3.7516    0.0000 O   0  0
    2.5951   -3.0039    0.0000 C   0  0
    2.5973   -1.5031    0.0000 N   0  0
    1.2990   -0.7500    0.0000 C   0  0
    1.2990    0.7500    0.0000 C   0  0
    0.0000    1.5000    0.0000 C   0  0
   -1.2990    0.7500    0.0000 C   0  0
   -1.2990   -0.7500    0.0000 C   0  0
   -2.5988   -1.5004    0.0000 C   0  0
   -3.8983   -0.7513    0.0000 F   0  0
   -2.5983   -3.0004    0.0000 F   0  0
   -3.8975   -2.2510    0.0000 F   0  0
    0.0000   -1.5000    0.0000 C   0  0
    3.8933   -3.7570    0.0000 C   0  0
    4.0312   -5.2378    0.0000 C   0  0
    2.9105   -6.2349    0.0000 O   0  0
    5.4984   -5.5497    0.0000 N   0  0
    6.2484   -4.2507    0.0000 N   0  0
    5.2447   -3.1359    0.0000 N   0  0
    5.5480   -1.6688    0.0000 C   0  0
    6.9725   -1.1961    0.0000 C   0  0
    7.2783    0.2725    0.0000 C   0  0
    8.7029    0.7420    0.0000 C   0  0
    9.8218   -0.2570    0.0000 C   0  0
   11.2482    0.2098    0.0000 O   0  0
   12.3663   -0.7913    0.0000 C   0  0
   13.7919   -0.3247    0.0000 F   0  0
   12.0580   -2.2593    0.0000 F   0  0
   13.4833   -1.7925    0.0000 F   0  0
    9.5161   -1.7255    0.0000 C   0  0
    8.0915   -2.1951    0.0000 C   0  0
  1  2  2  0
  2  3  1  0
  3  4  1  0
  4  5  2  0
  5  6  1  0
  6  7  2  0
  7  8  1  0
  8  9  1  0
  9 10  1  0
  9 11  1  0
  9 12  1  0
  8 13  2  0
 13  4  1  0
  2 14  1  0
 14 15  2  0
 15 16  1  0
 15 17  1  0
 17 18  2  0
 18 19  1  0
 19 14  1  0
 19 20  1  0
 20 21  1  0
 21 22  2  0
 22 23  1  0
 23 24  2  0
 24 25  1  0
 25 26  1  0
 26 27  1  0
 26 28  1  0
 26 29  1  0
 24 30  1  0
 30 31  2  0
 31 21  1  0
M  END
> <assay_chembl_id>
CHEMBL4231821

> <assay_description>
Antiproliferative activity against human 22Rv1 cells after 72 hrs by sulforhodamine B colorimetric assay

> <document_journal>
Eur J Med Chem

> <molecule_chembl_id>
CHEMBL4248154

> <standard_value>
31280

> <IC50_uM>
31.28

> <Activity>
No

> <Canonical_Smiles>
O=C(Nc1cccc(C(F)(F)F)c1)c1c(O)nnn1Cc1ccc(OC(F)(F)F)cc1

$$$$

  SciTegic03142313312D

 21 23  0  0  0  0            999 V2000
   -0.6923   -4.0811    0.0000 O   0  0
    0.3114   -2.9665    0.0000 C   0  0
    1.8032   -3.1233    0.0000 N   0  0
    2.4133   -1.7530    0.0000 O   0  0
    1.2990   -0.7500    0.0000 C   0  0
    1.2990    0.7500    0.0000 C   0  0
    0.0000    1.5000    0.0000 C   0  0
   -1.2990    0.7500    0.0000 C   0  0
   -1.2990   -0.7500    0.0000 C   0  0
   -2.6003   -1.4978    0.0000 N   0  0
   -3.8990   -0.7455    0.0000 C   0  0
   -5.2007   -1.4909    0.0000 C   0  0
   -6.4972   -0.7365    0.0000 C   0  0
   -6.4920    0.7635    0.0000 C   0  0
   -5.1903    1.5090    0.0000 C   0  0
   -5.1852    3.0099    0.0000 C   0  0
   -6.4811    3.7652    0.0000 F   0  0
   -3.8833    3.7550    0.0000 F   0  0
   -5.1793    4.5098    0.0000 F   0  0
   -3.8939    0.7546    0.0000 C   0  0
    0.0000   -1.5000    0.0000 C   0  0
  1  2  1  0
  2  3  2  0
  3  4  1  0
  4  5  1  0
  5  6  2  0
  6  7  1  0
  7  8  2  0
  8  9  1  0
  9 10  1  0
 10 11  1  0
 11 12  2  0
 12 13  1  0
 13 14  2  0
 14 15  1  0
 15 16  1  0
 16 17  1  0
 16 18  1  0
 16 19  1  0
 15 20  2  0
 20 11  1  0
  9 21  2  0
 21  2  1  0
 21  5  1  0
M  END
> <assay_chembl_id>
CHEMBL4231821

> <assay_description>
Antiproliferative activity against human 22Rv1 cells after 72 hrs by sulforhodamine B colorimetric assay

> <document_journal>
Eur J Med Chem

> <molecule_chembl_id>
CHEMBL4245231

> <standard_value>
64760

> <IC50_uM>
64.76

> <Activity>
No

> <Canonical_Smiles>
Oc1noc2cccc(Nc3cccc(C(F)(F)F)c3)c12

$$$$

  SciTegic03142313312D

 21 23  0  0  0  0            999 V2000
   -0.6923   -4.0811    0.0000 O   0  0
    0.3114   -2.9665    0.0000 C   0  0
    1.8032   -3.1233    0.0000 N   0  0
    2.4133   -1.7530    0.0000 O   0  0
    1.2990   -0.7500    0.0000 C   0  0
    1.2990    0.7500    0.0000 C   0  0
    0.0000    1.5000    0.0000 C   0  0
   -1.2990    0.7500    0.0000 C   0  0
   -2.6003    1.4977    0.0000 N   0  0
   -3.8990    0.7455    0.0000 C   0  0
   -5.2007    1.4909    0.0000 C   0  0
   -6.4972    0.7364    0.0000 C   0  0
   -6.4920   -0.7636    0.0000 C   0  0
   -5.1903   -1.5091    0.0000 C   0  0
   -5.1851   -3.0099    0.0000 C   0  0
   -6.4811   -3.7652    0.0000 F   0  0
   -3.8833   -3.7550    0.0000 F   0  0
   -5.1792   -4.5099    0.0000 F   0  0
   -3.8939   -0.7546    0.0000 C   0  0
   -1.2990   -0.7500    0.0000 C   0  0
    0.0000   -1.5000    0.0000 C   0  0
  1  2  1  0
  2  3  2  0
  3  4  1  0
  4  5  1  0
  5  6  2  0
  6  7  1  0
  7  8  2  0
  8  9  1  0
  9 10  1  0
 10 11  2  0
 11 12  1  0
 12 13  2  0
 13 14  1  0
 14 15  1  0
 15 16  1  0
 15 17  1  0
 15 18  1  0
 14 19  2  0
 19 10  1  0
  8 20  1  0
 20 21  2  0
 21  2  1  0
 21  5  1  0
M  END
> <assay_chembl_id>
CHEMBL4231821

> <assay_description>
Antiproliferative activity against human 22Rv1 cells after 72 hrs by sulforhodamine B colorimetric assay

> <document_journal>
Eur J Med Chem

> <molecule_chembl_id>
CHEMBL4238730

> <standard_value>
74830

> <IC50_uM>
74.83

> <Activity>
No

> <Canonical_Smiles>
Oc1noc2ccc(Nc3cccc(C(F)(F)F)c3)cc12

$$$$

  SciTegic03142313312D

 25 27  0  0  0  0            999 V2000
   -0.6923   -4.0811    0.0000 O   0  0
    0.3114   -2.9665    0.0000 C   0  0
    1.8032   -3.1233    0.0000 N   0  0
    2.4133   -1.7530    0.0000 O   0  0
    1.2990   -0.7500    0.0000 C   0  0
    1.2990    0.7500    0.0000 C   0  0
    0.0000    1.5000    0.0000 C   0  0
   -1.2990    0.7500    0.0000 C   0  0
   -1.2990   -0.7500    0.0000 C   0  0
   -2.6003   -1.4978    0.0000 N   0  0
   -3.8990   -0.7455    0.0000 C   0  0
   -5.2007   -1.4909    0.0000 C   0  0
   -6.4972   -0.7365    0.0000 C   0  0
   -7.7995   -1.4824    0.0000 C   0  0
   -7.8056   -2.9824    0.0000 F   0  0
   -9.0957   -0.7275    0.0000 F   0  0
   -9.1015   -2.2273    0.0000 F   0  0
   -6.4920    0.7635    0.0000 C   0  0
   -5.1903    1.5090    0.0000 C   0  0
   -5.1852    3.0099    0.0000 C   0  0
   -6.4811    3.7652    0.0000 F   0  0
   -3.8833    3.7550    0.0000 F   0  0
   -5.1793    4.5098    0.0000 F   0  0
   -3.8939    0.7546    0.0000 C   0  0
    0.0000   -1.5000    0.0000 C   0  0
  1  2  1  0
  2  3  2  0
  3  4  1  0
  4  5  1  0
  5  6  2  0
  6  7  1  0
  7  8  2  0
  8  9  1  0
  9 10  1  0
 10 11  1  0
 11 12  2  0
 12 13  1  0
 13 14  1  0
 14 15  1  0
 14 16  1  0
 14 17  1  0
 13 18  2  0
 18 19  1  0
 19 20  1  0
 20 21  1  0
 20 22  1  0
 20 23  1  0
 19 24  2  0
 24 11  1  0
  9 25  2  0
 25  2  1  0
 25  5  1  0
M  END
> <assay_chembl_id>
CHEMBL4231821

> <assay_description>
Antiproliferative activity against human 22Rv1 cells after 72 hrs by sulforhodamine B colorimetric assay

> <document_journal>
Eur J Med Chem

> <molecule_chembl_id>
CHEMBL4238437

> <standard_value>
26700

> <IC50_uM>
26.7

> <Activity>
No

> <Canonical_Smiles>
Oc1noc2cccc(Nc3cc(C(F)(F)F)cc(C(F)(F)F)c3)c12

$$$$

  SciTegic03142313312D

 23 25  0  0  0  0            999 V2000
    2.1261   -0.7601    0.0000 O   0  0
    1.9182   -1.7382    0.0000 C   0  0
    1.0047   -2.1449    0.0000 N   0  0
    1.1092   -3.1394    0.0000 O   0  0
    2.0874   -3.3474    0.0000 C   0  0
    2.5874   -4.2134    0.0000 C   0  0
    3.5873   -4.2134    0.0000 C   0  0
    4.0873   -3.3474    0.0000 C   0  0
    3.5874   -2.4813    0.0000 C   0  0
    4.0874   -1.6153    0.0000 N   0  0
    5.0874   -1.6153    0.0000 C   0  0
    5.5874   -0.7493    0.0000 C   0  0
    6.5873   -0.7493    0.0000 C   0  0
    7.0873   -1.6153    0.0000 C   0  0
    6.5873   -2.4813    0.0000 C   0  0
    7.0873   -3.3473    0.0000 S   0  0
    7.5873   -2.4813    0.0000 F   0  0
    8.0873   -3.3473    0.0000 F   0  0
    7.5874   -4.2133    0.0000 F   0  0
    6.5874   -4.2134    0.0000 F   0  0
    6.0873   -3.3473    0.0000 F   0  0
    5.5874   -2.4813    0.0000 C   0  0
    2.5874   -2.4814    0.0000 C   0  0
  1  2  1  0
  2  3  2  0
  3  4  1  0
  4  5  1  0
  5  6  2  0
  6  7  1  0
  7  8  2  0
  8  9  1  0
  9 10  1  0
 10 11  1  0
 11 12  2  0
 12 13  1  0
 13 14  2  0
 14 15  1  0
 15 16  1  0
 16 17  1  0
 16 18  1  0
 16 19  1  0
 16 20  1  0
 16 21  1  0
 15 22  2  0
 22 11  1  0
  9 23  2  0
 23  2  1  0
 23  5  1  0
M  END
> <assay_chembl_id>
CHEMBL4231821

> <assay_description>
Antiproliferative activity against human 22Rv1 cells after 72 hrs by sulforhodamine B colorimetric assay

> <document_journal>
Eur J Med Chem

> <molecule_chembl_id>
CHEMBL4249650

> <standard_value>
64900

> <IC50_uM>
64.9

> <Activity>
No

> <Canonical_Smiles>
Oc1noc2cccc(Nc3cccc(S(F)(F)(F)(F)F)c3)c12

$$$$

  SciTegic03142313312D

 22 25  0  0  0  0            999 V2000
    2.5951   -3.0031    0.0000 C   0  0
    2.5973   -1.5031    0.0000 O   0  0
    1.2990   -0.7500    0.0000 C   0  0
    1.2990    0.7500    0.0000 C   0  0
    0.0000    1.5000    0.0000 C   0  0
   -1.2990    0.7500    0.0000 C   0  0
   -2.7248    1.2135    0.0000 N   0  0
   -3.6065    0.0000    0.0000 C   0  0
   -2.7248   -1.2135    0.0000 C   0  0
   -3.1884   -2.6409    0.0000 C   0  0  3  0  0  0
   -4.5650   -3.1911    0.0000 C   0  0
   -4.4475   -4.6865    0.0000 C   0  0
   -5.5888   -5.6610    0.0000 C   0  0
   -7.0313   -5.2684    0.0000 C   0  0
   -8.0955   -6.3255    0.0000 C   0  0
   -7.7121   -7.7756    0.0000 N   0  0
   -6.2646   -8.1687    0.0000 C   0  0
   -5.2004   -7.1116    0.0000 C   0  0
   -2.9890   -5.0368    0.0000 N   0  0
   -2.2051   -3.7579    0.0000 O   0  0
   -1.2990   -0.7500    0.0000 C   0  0
    0.0000   -1.5000    0.0000 C   0  0
  1  2  1  0
  2  3  1  0
  3  4  2  0
  4  5  1  0
  5  6  2  0
  6  7  1  0
  7  8  1  0
  8  9  2  0
 10  9  1  4
 10 11  1  0
 11 12  1  0
 12 13  1  0
 13 14  2  0
 14 15  1  0
 15 16  2  0
 16 17  1  0
 17 18  2  0
 18 13  1  0
 12 19  2  0
 19 20  1  0
 20 10  1  0
  9 21  1  0
 21  6  1  0
 21 22  2  0
 22  3  1  0
M  END
> <assay_chembl_id>
CHEMBL4235116

> <assay_description>
Growth inhibition of human 22Rv1 cells after 48 hrs by MTT assay

> <document_journal>
Bioorg Med Chem Lett

> <molecule_chembl_id>
CHEMBL4238992

> <standard_value>
35500

> <IC50_uM>
35.5

> <Activity>
No

> <Canonical_Smiles>
COc1ccc2[nH]cc(C3CC(c4ccncc4)=NO3)c2c1

$$$$

  SciTegic03142313312D

 28 31  0  0  0  0            999 V2000
    4.8689    3.5238    0.0000 O   0  0
    5.9880    2.5249    0.0000 C   0  0
    5.6819    1.0557    0.0000 C   0  0
    4.2567    0.5852    0.0000 C   0  0
    3.9511   -0.8815    0.0000 C   0  0
    4.9531   -1.9978    0.0000 N   0  0
    4.2010   -3.2956    0.0000 C   0  0
    2.7343   -2.9815    0.0000 C   0  0
    2.5987   -1.5004    0.0000 N   0  0
    1.2990   -0.7500    0.0000 C   0  0
    1.2990    0.7500    0.0000 C   0  0
    0.0000    1.5000    0.0000 C   0  0
   -1.2990    0.7500    0.0000 C   0  0
   -1.2990   -0.7500    0.0000 C   0  0
    0.0000   -1.5000    0.0000 C   0  0
    7.4132    2.9954    0.0000 C   0  0
    7.7193    4.4647    0.0000 C   0  0
    9.1445    4.9351    0.0000 C   0  0
   10.3396    4.0498    0.0000 N   0  0
   11.5508    4.9347    0.0000 C   0  0
   11.0835    6.3601    0.0000 C   0  0
    9.5835    6.3561    0.0000 N   0  0
    8.6910    7.5626    0.0000 C   0  0
    7.1971    7.5112    0.0000 C   0  0
    6.4036    8.7841    0.0000 C   0  0
    7.1093   10.1078    0.0000 C   0  0
    8.6085   10.1585    0.0000 C   0  0
    9.4019    8.8855    0.0000 C   0  0
  1  2  2  0
  2  3  1  0
  3  4  2  0
  4  5  1  0
  5  6  2  0
  6  7  1  0
  7  8  2  0
  8  9  1  0
  9  5  1  0
  9 10  1  0
 10 11  2  0
 11 12  1  0
 12 13  2  0
 13 14  1  0
 14 15  2  0
 15 10  1  0
  2 16  1  0
 16 17  2  0
 17 18  1  0
 18 19  2  0
 19 20  1  0
 20 21  2  0
 21 22  1  0
 22 18  1  0
 22 23  1  0
 23 24  2  0
 24 25  1  0
 25 26  2  0
 26 27  1  0
 27 28  2  0
 28 23  1  0
M  END
> <assay_chembl_id>
CHEMBL4236225

> <assay_description>
Antiproliferative activity against enzalutamide-resistant human 22Rv1 cells after 5 days by trypan blue exclusion assay

> <document_journal>
Bioorg Med Chem

> <molecule_chembl_id>
CHEMBL4239401

> <standard_value>
300

> <IC50_uM>
0.3

> <Activity>
Yes

> <Canonical_Smiles>
O=C(/C=C/c1nccn1-c1ccccc1)/C=C/c1nccn1-c1ccccc1

$$$$

  SciTegic03142313312D

 26 29  0  0  1  0            999 V2000
    2.5981   -1.5000    0.0000 C   0  0
    1.2990   -0.7500    0.0000 C   0  0
    1.2990    0.7500    0.0000 C   0  0
    0.0000    1.5000    0.0000 C   0  0
    0.0000    3.0000    0.0000 O   0  0
   -1.2990    0.7500    0.0000 C   0  0
   -2.5987    1.5004    0.0000 C   0  0
   -2.6012    3.0004    0.0000 C   0  0
   -3.9015    3.7484    0.0000 C   0  0
   -5.1993    2.9963    0.0000 C   0  0
   -6.5013    3.7429    0.0000 C   0  0  1  0  0  0
   -7.7978    2.9887    0.0000 C   0  0
   -6.5066    5.2437    0.0000 C   0  0
   -7.8079    5.9899    0.0000 N   0  0
   -5.1969    1.4963    0.0000 C   0  0
   -3.8967    0.7484    0.0000 C   0  0
   -1.2990   -0.7500    0.0000 C   0  0
    0.0000   -1.5000    0.0000 C   0  0
    0.0000   -3.0000    0.0000 N   0  0
   -1.2990   -3.7500    0.0000 C   0  0
   -1.2990   -5.2500    0.0000 O   0  0
   -2.5981   -3.0000    0.0000 C   0  0
   -4.0238   -3.4635    0.0000 S   0  0
   -4.9055   -2.2500    0.0000 C   0  0
   -4.0238   -1.0365    0.0000 C   0  0
   -2.5981   -1.5000    0.0000 C   0  0
  1  2  1  0
  2  3  2  0
  3  4  1  0
  4  5  1  0
  4  6  2  0
  6  7  1  0
  7  8  2  0
  8  9  1  0
  9 10  2  0
 10 11  1  0
 11 12  1  1
 11 13  1  0
 13 14  1  0
 10 15  1  0
 15 16  2  0
 16  7  1  0
  6 17  1  0
 17 18  2  0
 18  2  1  0
 18 19  1  0
 19 20  1  0
 20 21  2  0
 20 22  1  0
 22 23  1  0
 23 24  1  0
 24 25  2  0
 25 26  1  0
 26 22  2  0
 26 17  1  0
M  END
> <assay_chembl_id>
CHEMBL4261708

> <assay_description>
Cytotoxicity against human 22Rv1 cells assessed as decrease in cell viability after 72 hrs by CCK8 assay

> <document_journal>
Medchemcomm

> <molecule_chembl_id>
CHEMBL3672295

> <standard_value>
8

> <IC50_uM>
0.008

> <Activity>
Yes

> <Canonical_Smiles>
Cc1cc(O)c(-c2ccc([C@@H](C)CN)cc2)c2c1[nH]c(=O)c1sccc12

$$$$

  SciTegic03142313312D

 33 36  0  0  1  0            999 V2000
    2.6030   -2.9977    0.0000 C   0  0
    2.6003   -1.4977    0.0000 C   0  0
    3.8983   -0.7459    0.0000 O   0  0
    1.2990   -0.7500    0.0000 C   0  0
    1.2990    0.7500    0.0000 C   0  0
    0.0000    1.5000    0.0000 N   0  0
   -1.2990    0.7500    0.0000 C   0  0
   -2.5981    1.5000    0.0000 C   0  0
   -3.8971    0.7500    0.0000 C   0  0
   -3.8971   -0.7500    0.0000 C   0  0
   -5.1968   -1.5004    0.0000 C   0  0
   -6.4971   -0.7525    0.0000 C   0  0
   -7.7950   -1.5046    0.0000 C   0  0
   -9.0952   -0.7567    0.0000 Cl  0  0
   -7.7926   -3.0046    0.0000 C   0  0
   -9.0904   -3.7567    0.0000 O   0  0
   -6.4923   -3.7525    0.0000 C   0  0
   -6.4900   -5.2525    0.0000 Cl  0  0
   -5.1945   -3.0005    0.0000 C   0  0
   -2.5981   -1.5000    0.0000 N   0  0
   -1.2990   -0.7500    0.0000 C   0  0
    0.0000   -1.5000    0.0000 C   0  0
    0.0031   -3.0008    0.0000 N   0  0
   -1.2946   -3.7547    0.0000 C   0  0  1  0  0  0
   -1.2937   -5.2548    0.0000 C   0  0
   -2.5923   -6.0056    0.0000 C   0  0
   -3.8918   -5.2565    0.0000 C   0  0  2  0  0  0
   -5.1895   -6.0104    0.0000 C   0  0
   -5.1864   -7.5112    0.0000 N   0  0
   -6.4834   -8.2648    0.0000 C   0  0
   -3.8856   -8.2581    0.0000 C   0  0
   -3.8928   -3.7565    0.0000 C   0  0
   -2.5943   -3.0056    0.0000 C   0  0
  1  2  1  0
  2  3  2  0
  2  4  1  0
  4  5  2  0
  5  6  1  0
  6  7  2  0
  7  8  1  0
  8  9  2  0
  9 10  1  0
 10 11  1  0
 11 12  2  0
 12 13  1  0
 13 14  1  0
 13 15  2  0
 15 16  1  0
 15 17  1  0
 17 18  1  0
 17 19  2  0
 19 11  1  0
 10 20  2  0
 20 21  1  0
 21  7  1  0
 21 22  2  0
 22  4  1  0
 22 23  1  0
 24 23  1  1
 24 25  1  0
 25 26  1  0
 26 27  1  0
 27 28  1  6
 28 29  1  0
 29 30  1  0
 29 31  1  0
 27 32  1  0
 32 33  1  0
 33 24  1  0
M  END
> <assay_chembl_id>
CHEMBL4261666

> <assay_description>
Antiproliferative activity against human 22Rv1 cells

> <document_journal>
Medchemcomm

> <molecule_chembl_id>
CHEMBL3688339

> <standard_value>
6

> <IC50_uM>
0.006

> <Activity>
Yes

> <Canonical_Smiles>
CC(=O)c1cnc2ccc(-c3cc(Cl)c(O)c(Cl)c3)nc2c1N[C@H]1CC[C@H](CN(C)C)CC1

$$$$

  SciTegic03142313312D

 28 31  0  0  1  0            999 V2000
    2.5981   -1.5000    0.0000 C   0  0
    1.2990   -0.7500    0.0000 C   0  0
    1.2990    0.7500    0.0000 C   0  0
    0.0000    1.5000    0.0000 C   0  0
    0.0000    3.0000    0.0000 O   0  0
   -1.2990    0.7500    0.0000 C   0  0
   -2.5987    1.5004    0.0000 C   0  0
   -2.6012    3.0004    0.0000 C   0  0
   -3.9015    3.7484    0.0000 C   0  0
   -5.1993    2.9963    0.0000 C   0  0
   -6.5013    3.7429    0.0000 C   0  0  1  0  0  0
   -7.7978    2.9887    0.0000 C   0  0
   -6.5066    5.2437    0.0000 C   0  0
   -7.8086    5.9903    0.0000 N   0  0
   -7.8139    7.4903    0.0000 C   0  0
   -9.1052    5.2361    0.0000 C   0  0
   -5.1969    1.4963    0.0000 C   0  0
   -3.8967    0.7484    0.0000 C   0  0
   -1.2990   -0.7500    0.0000 C   0  0
    0.0000   -1.5000    0.0000 C   0  0
    0.0000   -3.0000    0.0000 N   0  0
   -1.2990   -3.7500    0.0000 C   0  0
   -1.2990   -5.2500    0.0000 O   0  0
   -2.5981   -3.0000    0.0000 C   0  0
   -4.0238   -3.4635    0.0000 S   0  0
   -4.9055   -2.2500    0.0000 C   0  0
   -4.0238   -1.0365    0.0000 C   0  0
   -2.5981   -1.5000    0.0000 C   0  0
  1  2  1  0
  2  3  2  0
  3  4  1  0
  4  5  1  0
  4  6  2  0
  6  7  1  0
  7  8  2  0
  8  9  1  0
  9 10  2  0
 10 11  1  0
 11 12  1  1
 11 13  1  0
 13 14  1  0
 14 15  1  0
 14 16  1  0
 10 17  1  0
 17 18  2  0
 18  7  1  0
  6 19  1  0
 19 20  2  0
 20  2  1  0
 20 21  1  0
 21 22  1  0
 22 23  2  0
 22 24  1  0
 24 25  1  0
 25 26  1  0
 26 27  2  0
 27 28  1  0
 28 24  2  0
 28 19  1  0
M  END
> <assay_chembl_id>
CHEMBL4261708

> <assay_description>
Cytotoxicity against human 22Rv1 cells assessed as decrease in cell viability after 72 hrs by CCK8 assay

> <document_journal>
Medchemcomm

> <molecule_chembl_id>
CHEMBL3672369

> <standard_value>
50

> <IC50_uM>
0.05

> <Activity>
Yes

> <Canonical_Smiles>
Cc1cc(O)c(-c2ccc([C@@H](C)CN(C)C)cc2)c2c1[nH]c(=O)c1sccc12

$$$$

  SciTegic03142313312D

 28 30  0  0  0  0            999 V2000
    3.8964    0.7545    0.0000 O   0  0
    3.8990   -0.7455    0.0000 C   0  0
    2.6003   -1.4977    0.0000 N   0  0
    1.2990   -0.7500    0.0000 C   0  0
    1.2990    0.7500    0.0000 C   0  0
    0.0000    1.5000    0.0000 C   0  0
   -1.2990    0.7500    0.0000 C   0  0
   -1.2990   -0.7500    0.0000 C   0  0
    0.0000   -1.5000    0.0000 C   0  0
    0.0000   -3.0008    0.0000 C   0  0
   -1.2986   -3.7517    0.0000 F   0  0
    1.2993   -3.7504    0.0000 F   0  0
    0.0007   -4.5008    0.0000 F   0  0
    5.2003   -1.4932    0.0000 C   0  0
    6.4994   -0.7432    0.0000 C   0  0
    7.7985   -1.4932    0.0000 C   0  0
    7.7985   -2.9932    0.0000 C   0  0
    9.0967   -3.7463    0.0000 S   0  0  3  0  0  0
   10.3971   -2.9985    0.0000 O   0  0
    9.0946   -5.2471    0.0000 C   0  0
   10.3911   -6.0016    0.0000 C   0  0
   10.3859   -7.5016    0.0000 C   0  0
    9.0843   -8.2472    0.0000 C   0  0
    9.0792   -9.7472    0.0000 O   0  0
    7.7879   -7.4927    0.0000 C   0  0
    7.7930   -5.9927    0.0000 C   0  0
    6.4995   -3.7432    0.0000 C   0  0
    5.2004   -2.9933    0.0000 C   0  0
  1  2  2  0
  2  3  1  0
  3  4  1  0
  4  5  2  0
  5  6  1  0
  6  7  2  0
  7  8  1  0
  8  9  2  0
  9  4  1  0
  9 10  1  0
 10 11  1  0
 10 12  1  0
 10 13  1  0
  2 14  1  0
 14 15  2  0
 15 16  1  0
 16 17  2  0
 18 17  1  4
 18 19  2  0
 18 20  1  0
 20 21  2  0
 21 22  1  0
 22 23  2  0
 23 24  1  0
 23 25  1  0
 25 26  2  0
 26 20  1  0
 17 27  1  0
 27 28  2  0
 28 14  1  0
M  END
> <assay_chembl_id>
CHEMBL4262715

> <assay_description>
Antiproliferative activity against human 22Rv1 cells after 96 hrs by propidium iodide staining-based fluorescence assay

> <document_journal>
Medchemcomm

> <molecule_chembl_id>
CHEMBL4278955

> <standard_value>
100000

> <IC50_uM>
100

> <Activity>
No

> <Canonical_Smiles>
O=C(Nc1ccccc1C(F)(F)F)c1ccc([S+]([O-])c2ccc(O)cc2)cc1

$$$$

  SciTegic03142313312D

 29 31  0  0  0  0            999 V2000
    3.8964    0.7545    0.0000 O   0  0
    3.8990   -0.7455    0.0000 C   0  0
    2.6003   -1.4977    0.0000 N   0  0
    1.2990   -0.7500    0.0000 C   0  0
    1.2990    0.7500    0.0000 C   0  0
    0.0000    1.5000    0.0000 C   0  0
   -1.2990    0.7500    0.0000 C   0  0
   -1.2990   -0.7500    0.0000 C   0  0
    0.0000   -1.5000    0.0000 C   0  0
    0.0000   -3.0008    0.0000 C   0  0
   -1.2986   -3.7517    0.0000 F   0  0
    1.2993   -3.7504    0.0000 F   0  0
    0.0007   -4.5008    0.0000 F   0  0
    5.2003   -1.4932    0.0000 C   0  0
    6.4994   -0.7432    0.0000 C   0  0
    7.7985   -1.4932    0.0000 C   0  0
    7.7985   -2.9932    0.0000 C   0  0
    9.0983   -3.7436    0.0000 S   0  0
    9.0978   -5.2436    0.0000 O   0  0
    7.7991   -4.4934    0.0000 O   0  0
   10.3985   -2.9940    0.0000 C   0  0
   11.6971   -3.7448    0.0000 C   0  0
   12.9966   -2.9955    0.0000 C   0  0
   12.9975   -1.4955    0.0000 C   0  0
   14.2970   -0.7463    0.0000 O   0  0
   11.6989   -0.7448    0.0000 C   0  0
   10.3994   -1.4940    0.0000 C   0  0
    6.4995   -3.7432    0.0000 C   0  0
    5.2004   -2.9933    0.0000 C   0  0
  1  2  2  0
  2  3  1  0
  3  4  1  0
  4  5  2  0
  5  6  1  0
  6  7  2  0
  7  8  1  0
  8  9  2  0
  9  4  1  0
  9 10  1  0
 10 11  1  0
 10 12  1  0
 10 13  1  0
  2 14  1  0
 14 15  2  0
 15 16  1  0
 16 17  2  0
 17 18  1  0
 18 19  2  0
 18 20  2  0
 18 21  1  0
 21 22  2  0
 22 23  1  0
 23 24  2  0
 24 25  1  0
 24 26  1  0
 26 27  2  0
 27 21  1  0
 17 28  1  0
 28 29  2  0
 29 14  1  0
M  END
> <assay_chembl_id>
CHEMBL4262715

> <assay_description>
Antiproliferative activity against human 22Rv1 cells after 96 hrs by propidium iodide staining-based fluorescence assay

> <document_journal>
Medchemcomm

> <molecule_chembl_id>
CHEMBL4289627

> <standard_value>
49310

> <IC50_uM>
49.31

> <Activity>
No

> <Canonical_Smiles>
O=C(Nc1ccccc1C(F)(F)F)c1ccc(S(=O)(=O)c2ccc(O)cc2)cc1

$$$$

  SciTegic03142313312D

 33 35  0  0  0  0            999 V2000
    3.8964    0.7545    0.0000 O   0  0
    3.8990   -0.7455    0.0000 C   0  0
    2.6003   -1.4977    0.0000 N   0  0
    1.2990   -0.7500    0.0000 C   0  0
    1.2990    0.7500    0.0000 C   0  0
    0.0000    1.5000    0.0000 C   0  0
    0.0000    3.0008    0.0000 C   0  0
    1.2985    3.7517    0.0000 F   0  0
   -1.2993    3.7504    0.0000 F   0  0
   -0.0007    4.5008    0.0000 F   0  0
   -1.2990    0.7500    0.0000 C   0  0
   -1.2990   -0.7500    0.0000 C   0  0
    0.0000   -1.5000    0.0000 C   0  0
    0.0000   -3.0008    0.0000 C   0  0
   -1.2986   -3.7517    0.0000 F   0  0
    1.2993   -3.7504    0.0000 F   0  0
    0.0007   -4.5008    0.0000 F   0  0
    5.2003   -1.4932    0.0000 C   0  0
    6.4994   -0.7432    0.0000 C   0  0
    7.7985   -1.4932    0.0000 C   0  0
    7.7985   -2.9932    0.0000 C   0  0
    9.0983   -3.7436    0.0000 S   0  0
    9.0978   -5.2436    0.0000 O   0  0
    7.7991   -4.4934    0.0000 O   0  0
   10.3985   -2.9940    0.0000 C   0  0
   11.6971   -3.7448    0.0000 C   0  0
   12.9966   -2.9955    0.0000 C   0  0
   12.9975   -1.4955    0.0000 C   0  0
   14.2970   -0.7463    0.0000 O   0  0
   11.6989   -0.7448    0.0000 C   0  0
   10.3994   -1.4940    0.0000 C   0  0
    6.4995   -3.7432    0.0000 C   0  0
    5.2004   -2.9933    0.0000 C   0  0
  1  2  2  0
  2  3  1  0
  3  4  1  0
  4  5  2  0
  5  6  1  0
  6  7  1  0
  7  8  1  0
  7  9  1  0
  7 10  1  0
  6 11  2  0
 11 12  1  0
 12 13  2  0
 13  4  1  0
 13 14  1  0
 14 15  1  0
 14 16  1  0
 14 17  1  0
  2 18  1  0
 18 19  2  0
 19 20  1  0
 20 21  2  0
 21 22  1  0
 22 23  2  0
 22 24  2  0
 22 25  1  0
 25 26  2  0
 26 27  1  0
 27 28  2  0
 28 29  1  0
 28 30  1  0
 30 31  2  0
 31 25  1  0
 21 32  1  0
 32 33  2  0
 33 18  1  0
M  END
> <assay_chembl_id>
CHEMBL4262715

> <assay_description>
Antiproliferative activity against human 22Rv1 cells after 96 hrs by propidium iodide staining-based fluorescence assay

> <document_journal>
Medchemcomm

> <molecule_chembl_id>
CHEMBL4279355

> <standard_value>
20660

> <IC50_uM>
20.66

> <Activity>
No

> <Canonical_Smiles>
O=C(Nc1cc(C(F)(F)F)ccc1C(F)(F)F)c1ccc(S(=O)(=O)c2ccc(O)cc2)cc1

$$$$

  SciTegic03142313312D

 27 29  0  0  0  0            999 V2000
    3.8964    0.7545    0.0000 O   0  0
    3.8990   -0.7455    0.0000 C   0  0
    2.6003   -1.4977    0.0000 N   0  0
    1.2990   -0.7500    0.0000 C   0  0
    1.2990    0.7500    0.0000 C   0  0
    0.0000    1.5000    0.0000 C   0  0
   -1.2990    0.7500    0.0000 C   0  0
   -1.2990   -0.7500    0.0000 C   0  0
    0.0000   -1.5000    0.0000 C   0  0
    0.0000   -3.0008    0.0000 C   0  0
   -1.2986   -3.7517    0.0000 F   0  0
    1.2993   -3.7504    0.0000 F   0  0
    0.0007   -4.5008    0.0000 F   0  0
    5.2003   -1.4932    0.0000 C   0  0
    6.4994   -0.7432    0.0000 C   0  0
    7.7985   -1.4932    0.0000 C   0  0
    7.7985   -2.9932    0.0000 C   0  0
    9.0967   -3.7463    0.0000 S   0  0
    9.0946   -5.2471    0.0000 C   0  0
   10.3911   -6.0016    0.0000 C   0  0
   10.3859   -7.5016    0.0000 C   0  0
    9.0843   -8.2472    0.0000 C   0  0
    9.0792   -9.7472    0.0000 O   0  0
    7.7879   -7.4927    0.0000 C   0  0
    7.7930   -5.9927    0.0000 C   0  0
    6.4995   -3.7432    0.0000 C   0  0
    5.2004   -2.9933    0.0000 C   0  0
  1  2  2  0
  2  3  1  0
  3  4  1  0
  4  5  2  0
  5  6  1  0
  6  7  2  0
  7  8  1  0
  8  9  2  0
  9  4  1  0
  9 10  1  0
 10 11  1  0
 10 12  1  0
 10 13  1  0
  2 14  1  0
 14 15  2  0
 15 16  1  0
 16 17  2  0
 17 18  1  0
 18 19  1  0
 19 20  2  0
 20 21  1  0
 21 22  2  0
 22 23  1  0
 22 24  1  0
 24 25  2  0
 25 19  1  0
 17 26  1  0
 26 27  2  0
 27 14  1  0
M  END
> <assay_chembl_id>
CHEMBL4262715

> <assay_description>
Antiproliferative activity against human 22Rv1 cells after 96 hrs by propidium iodide staining-based fluorescence assay

> <document_journal>
Medchemcomm

> <molecule_chembl_id>
CHEMBL4289937

> <standard_value>
30920

> <IC50_uM>
30.92

> <Activity>
No

> <Canonical_Smiles>
O=C(Nc1ccccc1C(F)(F)F)c1ccc(Sc2ccc(O)cc2)cc1

$$$$

  SciTegic03142313312D

 38 41  0  0  1  0            999 V2000
    3.8912   -5.2570    0.0000 C   0  0
    3.8933   -3.7570    0.0000 N   0  0
    2.5951   -3.0039    0.0000 C   0  0
    1.2948   -3.7516    0.0000 O   0  0
    2.5973   -1.5031    0.0000 N   0  0
    1.2990   -0.7500    0.0000 C   0  0
    1.2990    0.7500    0.0000 C   0  0
    0.0000    1.5000    0.0000 C   0  0
   -1.2990    0.7500    0.0000 C   0  0
   -1.2990   -0.7500    0.0000 C   0  0
    0.0000   -1.5000    0.0000 C   0  0
   -2.7248   -1.2135    0.0000 C   0  0
   -3.6065    0.0000    0.0000 C   0  0
   -2.7248    1.2135    0.0000 C   0  0  1  0  0  0
   -3.6834    2.4186    0.0000 O   0  0
   -2.8995    3.6975    0.0000 C   0  0
   -3.4734    5.0834    0.0000 O   0  0
   -1.4410    3.3472    0.0000 N   0  0
   -0.2996    4.3177    0.0000 C   0  0
    1.1144    3.8145    0.0000 C   0  0
    1.3850    2.3391    0.0000 O   0  0
    2.2578    4.7867    0.0000 N   0  0
    3.6717    4.2836    0.0000 C   0  0
    3.9439    2.8076    0.0000 C   0  0
    5.3564    2.3026    0.0000 C   0  0
    5.6254    0.8270    0.0000 C   0  0
    4.4819   -0.1438    0.0000 C   0  0
    4.7509   -1.6195    0.0000 F   0  0
    3.0694    0.3610    0.0000 C   0  0
    2.8004    1.8367    0.0000 C   0  0
    1.9900    6.2635    0.0000 C   0  0  1  0  0  0
    0.5779    6.7693    0.0000 C   0  0
    3.1345    7.2345    0.0000 C   0  0
    2.8669    8.7104    0.0000 F   0  0
    4.5466    6.7286    0.0000 F   0  0
    4.2788    8.2043    0.0000 F   0  0
   -1.3234    1.8518    0.0000 C   0  0
   -0.0311    1.0903    0.0000 O   0  0
  1  2  1  0
  2  3  1  0
  3  4  2  0
  3  5  1  0
  5  6  1  0
  6  7  2  0
  7  8  1  0
  8  9  2  0
  9 10  1  0
 10 11  2  0
 11  6  1  0
 10 12  1  0
 12 13  1  0
 14 13  1  6
 14  9  1  0
 14 15  1  0
 15 16  1  0
 16 17  2  0
 16 18  1  0
 18 19  1  0
 19 20  1  0
 20 21  2  0
 20 22  1  0
 22 23  1  0
 23 24  1  0
 24 25  2  0
 25 26  1  0
 26 27  2  0
 27 28  1  0
 27 29  1  0
 29 30  2  0
 30 24  1  0
 22 31  1  0
 31 32  1  1
 31 33  1  0
 33 34  1  0
 33 35  1  0
 33 36  1  0
 18 37  1  0
 37 14  1  0
 37 38  2  0
M  END
> <assay_chembl_id>
CHEMBL4325463

> <assay_description>
Antiproliferative activity against human 22Rv1 cells measured after 3 days by celltiter-glo luminescence assay

> <document_journal>
J Med Chem

> <molecule_chembl_id>
CHEMBL4282264

> <standard_value>
490

> <IC50_uM>
0.49

> <Activity>
Yes

> <Canonical_Smiles>
CNC(=O)Nc1ccc2c(c1)CC[C@@]21OC(=O)N(CC(=O)N(Cc2ccc(F)cc2)[C@@H](C)C(F)(F)F)C1=O

$$$$

  SciTegic03142313312D

 40 45  0  0  1  0            999 V2000
    6.4451   -1.8434    0.0000 C   0  0
    4.9531   -1.9978    0.0000 N   0  0
    3.9511   -0.8815    0.0000 C   0  0
    2.5987   -1.5004    0.0000 C   0  0
    1.2990   -0.7500    0.0000 C   0  0
    1.2990    0.7500    0.0000 C   0  0
    0.0000    1.5000    0.0000 C   0  0
   -1.2990    0.7500    0.0000 C   0  0
   -1.2990   -0.7500    0.0000 C   0  0
    0.0000   -1.5000    0.0000 C   0  0
   -2.7248   -1.2135    0.0000 C   0  0
   -3.6065    0.0000    0.0000 C   0  0
   -2.7248    1.2135    0.0000 C   0  0  2  0  0  0
   -3.6834    2.4186    0.0000 N   0  0
   -2.8995    3.6975    0.0000 C   0  0
   -3.4734    5.0834    0.0000 O   0  0
   -1.4410    3.3472    0.0000 N   0  0
   -0.2996    4.3177    0.0000 C   0  0
    1.1144    3.8145    0.0000 C   0  0
    1.3850    2.3391    0.0000 O   0  0
    2.2578    4.7867    0.0000 N   0  0
    1.8878    6.2480    0.0000 C   0  0
    2.7833    7.4514    0.0000 C   0  0
    1.9901    8.7258    0.0000 C   0  0
    2.6962   10.0492    0.0000 C   0  0
    1.9031   11.3224    0.0000 F   0  0
    4.1954   10.0995    0.0000 C   0  0
    4.9885    8.8263    0.0000 C   0  0
    4.2824    7.5016    0.0000 C   0  0
    5.2564    6.3608    0.0000 O   0  0
    4.9718    4.8881    0.0000 C   0  0
    3.6429    4.1924    0.0000 C   0  0  1  0  0  0
    3.7030    2.6907    0.0000 C   0  0
    5.0306    1.9925    0.0000 F   0  0
    2.4348    1.8897    0.0000 F   0  0
    3.7624    1.1919    0.0000 F   0  0
   -1.3234    1.8518    0.0000 C   0  0
   -0.0311    1.0903    0.0000 O   0  0
    2.7343   -2.9815    0.0000 C   0  0
    4.2010   -3.2956    0.0000 N   0  0
  1  2  1  0
  2  3  1  0
  3  4  2  0
  4  5  1  0
  5  6  2  0
  6  7  1  0
  7  8  2  0
  8  9  1  0
  9 10  2  0
 10  5  1  0
  9 11  1  0
 11 12  1  0
 13 12  1  1
 13  8  1  0
 13 14  1  0
 14 15  1  0
 15 16  2  0
 15 17  1  0
 17 18  1  0
 18 19  1  0
 19 20  2  0
 19 21  1  0
 21 22  1  0
 22 23  1  0
 23 24  2  0
 24 25  1  0
 25 26  1  0
 25 27  2  0
 27 28  1  0
 28 29  2  0
 29 23  1  0
 29 30  1  0
 30 31  1  0
 31 32  1  0
 32 21  1  0
 32 33  1  1
 33 34  1  0
 33 35  1  0
 33 36  1  0
 17 37  1  0
 37 13  1  0
 37 38  2  0
  4 39  1  0
 39 40  2  0
 40  2  1  0
M  END
> <assay_chembl_id>
CHEMBL4325463

> <assay_description>
Antiproliferative activity against human 22Rv1 cells measured after 3 days by celltiter-glo luminescence assay

> <document_journal>
J Med Chem

> <molecule_chembl_id>
CHEMBL4587968

> <standard_value>
4.4

> <IC50_uM>
0.0044

> <Activity>
Yes

> <Canonical_Smiles>
Cn1cc(-c2ccc3c(c2)CC[C@]32NC(=O)N(CC(=O)N3Cc4cc(F)ccc4OC[C@H]3C(F)(F)F)C2=O)cn1

$$$$

  SciTegic03142313312D

 32 36  0  0  0  0            999 V2000
    7.7909   -4.5091    0.0000 N   0  0
    6.4931   -3.7570    0.0000 C   0  0
    5.1945   -3.0045    0.0000 C   0  0
    5.1969   -1.5045    0.0000 C   0  0
    3.8991   -0.7525    0.0000 C   0  0
    2.5987   -1.5004    0.0000 C   0  0
    1.2990   -0.7500    0.0000 N   0  0
    1.2990    0.7500    0.0000 C   0  0
    0.0000    1.5000    0.0000 C   0  0
   -1.2990    0.7500    0.0000 C   0  0
   -2.5981    1.5000    0.0000 C   0  0
   -3.8971    0.7500    0.0000 C   0  0
   -5.1968    1.5003    0.0000 C   0  0
   -5.1993    3.0004    0.0000 C   0  0
   -6.4995    3.7483    0.0000 N   0  0
   -7.7974    2.9963    0.0000 C   0  0
   -9.0976    3.7442    0.0000 C   0  0
  -10.3955    2.9921    0.0000 C   0  0
  -10.3931    1.4921    0.0000 C   0  0
   -9.0928    0.7442    0.0000 C   0  0
   -7.7950    1.4963    0.0000 C   0  0
   -6.4948    0.7483    0.0000 C   0  0
   -3.8971   -0.7500    0.0000 C   0  0
   -2.5981   -1.5000    0.0000 C   0  0
   -1.2990   -0.7500    0.0000 C   0  0
    0.0000   -1.5000    0.0000 C   0  0
    2.5965   -3.0004    0.0000 C   0  0
    3.8943   -3.7525    0.0000 C   0  0
    3.8919   -5.2533    0.0000 C   0  0
    2.5922   -6.0021    0.0000 F   0  0
    5.1900   -6.0050    0.0000 F   0  0
    3.8903   -6.7533    0.0000 F   0  0
  1  2  3  0
  2  3  1  0
  3  4  2  0
  4  5  1  0
  5  6  2  0
  6  7  1  0
  7  8  1  0
  8  9  1  0
  9 10  1  0
 10 11  2  0
 11 12  1  0
 12 13  1  0
 13 14  2  0
 14 15  1  0
 15 16  2  0
 16 17  1  0
 17 18  2  0
 18 19  1  0
 19 20  2  0
 20 21  1  0
 21 16  1  0
 21 22  2  0
 22 13  1  0
 12 23  2  0
 23 24  1  0
 24 25  2  0
 25 10  1  0
 25 26  1  0
 26  7  1  0
  6 27  1  0
 27 28  2  0
 28  3  1  0
 28 29  1  0
 29 30  1  0
 29 31  1  0
 29 32  1  0
M  END
> <assay_chembl_id>
CHEMBL4348412

> <assay_description>
Antiproliferative activity against human 22Rv1 cells assessed as reduction in cell viability incubated for 6 days by CCK8 assay

> <document_journal>
Eur J Med Chem

> <molecule_chembl_id>
CHEMBL4468957

> <standard_value>
25900

> <IC50_uM>
25.9

> <Activity>
No

> <Canonical_Smiles>
N#Cc1ccc(N2CCc3cc(-c4cnc5ccccc5c4)ccc3C2)cc1C(F)(F)F

$$$$

  SciTegic03142313312D

 24 26  0  0  0  0            999 V2000
    5.1965   -1.5117    0.0000 C   0  0
    3.8999   -0.7576    0.0000 C   0  0
    2.5973   -1.5031    0.0000 N   0  0
    1.2990   -0.7500    0.0000 C   0  0
    1.2990    0.7500    0.0000 C   0  0
    0.0000    1.5000    0.0000 C   0  0
   -1.2990    0.7500    0.0000 C   0  0
   -2.5988    1.5004    0.0000 C   0  0
   -3.8978    2.2504    0.0000 N   0  0
   -1.2990   -0.7500    0.0000 C   0  0
   -2.5981   -1.5000    0.0000 Cl  0  0
    0.0000   -1.5000    0.0000 C   0  0
    2.5951   -3.0039    0.0000 C   0  0
    1.2935   -3.7495    0.0000 C   0  0
    1.2883   -5.2495    0.0000 C   0  0
   -0.0140   -5.9954    0.0000 C   0  0
   -1.3642   -5.3718    0.0000 C   0  0
   -2.3700   -6.4847    0.0000 C   0  0
   -1.6224   -7.7851    0.0000 C   0  0
   -0.1546   -7.4760    0.0000 S   0  0
    2.5847   -6.0040    0.0000 C   0  0
    3.8864   -5.2585    0.0000 C   0  0
    3.8915   -3.7585    0.0000 C   0  0
    5.1932   -3.0130    0.0000 C   0  0
  1  2  1  0
  2  3  1  0
  3  4  1  0
  4  5  2  0
  5  6  1  0
  6  7  2  0
  7  8  1  0
  8  9  3  0
  7 10  1  0
 10 11  1  0
 10 12  2  0
 12  4  1  0
  3 13  1  0
 13 14  2  0
 14 15  1  0
 15 16  1  0
 16 17  2  0
 17 18  1  0
 18 19  2  0
 19 20  1  0
 20 16  1  0
 15 21  2  0
 21 22  1  0
 22 23  2  0
 23 13  1  0
 23 24  1  0
M  END
> <assay_chembl_id>
CHEMBL4348412

> <assay_description>
Antiproliferative activity against human 22Rv1 cells assessed as reduction in cell viability incubated for 6 days by CCK8 assay

> <document_journal>
Eur J Med Chem

> <molecule_chembl_id>
CHEMBL4451735

> <standard_value>
22000

> <IC50_uM>
22

> <Activity>
No

> <Canonical_Smiles>
CCN(c1ccc(C#N)c(Cl)c1)c1cc(-c2cccs2)ccc1C

$$$$

  SciTegic03142313312D

 29 31  0  0  1  0            999 V2000
    3.8976   -0.7553    0.0000 C   0  0
    2.5973   -1.5031    0.0000 C   0  0  3  0  0  0
    2.5951   -3.0031    0.0000 O   0  0
    1.2990   -0.7500    0.0000 C   0  0
    1.2990    0.7500    0.0000 C   0  0
    0.0000    1.5000    0.0000 C   0  0
   -1.2990    0.7500    0.0000 C   0  0
   -1.2990   -0.7500    0.0000 C   0  0
   -2.5972   -1.5031    0.0000 C   0  0
   -3.8976   -0.7554    0.0000 O   0  0
   -2.5951   -3.0039    0.0000 N   0  0
   -3.8933   -3.7570    0.0000 C   0  0  1  0  0  0
   -5.1937   -3.0093    0.0000 C   0  0
   -3.8912   -5.2578    0.0000 C   0  0
   -5.1894   -6.0109    0.0000 N   0  0
   -5.3272   -7.4918    0.0000 C   0  0
   -6.7944   -7.8036    0.0000 C   0  0
   -7.5445   -6.5046    0.0000 C   0  0
   -9.0370   -6.3478    0.0000 C   0  0
  -10.0036   -7.4883    0.0000 C   0  0
  -11.4793   -7.2197    0.0000 C   0  0
  -11.9846   -5.8074    0.0000 C   0  0
  -13.4612   -5.5387    0.0000 C   0  0
  -14.9369   -5.2701    0.0000 N   0  0
  -11.0141   -4.6636    0.0000 C   0  0
  -11.5194   -3.2513    0.0000 Cl  0  0
   -9.5384   -4.9322    0.0000 C   0  0
   -6.5408   -5.3899    0.0000 N   0  0
    0.0000   -1.5000    0.0000 C   0  0
  2  1  1  4
  2  3  1  0
  2  4  1  0
  4  5  2  0
  5  6  1  0
  6  7  2  0
  7  8  1  0
  8  9  1  0
  9 10  2  0
  9 11  1  0
 11 12  1  0
 12 13  1  6
 12 14  1  0
 14 15  1  0
 15 16  1  0
 16 17  2  0
 17 18  1  0
 18 19  1  0
 19 20  2  0
 20 21  1  0
 21 22  2  0
 22 23  1  0
 23 24  3  0
 22 25  1  0
 25 26  1  0
 25 27  2  0
 27 19  1  0
 18 28  2  0
 28 15  1  0
  8 29  2  0
 29  4  1  0
M  END
> <assay_chembl_id>
CHEMBL4362990

> <assay_description>
Antiproliferative activity against human 22Rv1 expressing AR assessed as reduction in cell viability incubated for 6 days by CCK-8 assay

> <document_journal>
Eur J Med Chem

> <molecule_chembl_id>
CHEMBL4576163

> <standard_value>
20080

> <IC50_uM>
20.08

> <Activity>
No

> <Canonical_Smiles>
CC(O)c1cccc(C(=O)N[C@@H](C)Cn2ccc(-c3ccc(C#N)c(Cl)c3)n2)c1

$$$$

  SciTegic03142313312D

 24 26  0  0  1  0            999 V2000
    2.4283   -5.7163    0.0000 C   0  0
    3.9195   -5.8781    0.0000 C   0  0  1  0  0  0
    4.8054   -4.6666    0.0000 C   0  0
    4.2010   -3.2956    0.0000 N   0  0
    4.9531   -1.9978    0.0000 C   0  0
    3.9511   -0.8815    0.0000 C   0  0
    2.5987   -1.5004    0.0000 C   0  0
    1.2990   -0.7500    0.0000 C   0  0
    1.2990    0.7500    0.0000 C   0  0
    0.0000    1.5000    0.0000 C   0  0
   -1.2990    0.7500    0.0000 C   0  0
   -2.5988    1.5004    0.0000 C   0  0
   -3.8978    2.2504    0.0000 N   0  0
   -1.2990   -0.7500    0.0000 C   0  0
   -2.5981   -1.5000    0.0000 Cl  0  0
    0.0000   -1.5000    0.0000 C   0  0
    2.7343   -2.9815    0.0000 N   0  0
    4.5250   -7.2514    0.0000 N   0  0
    3.6391   -8.4629    0.0000 C   0  0
    4.2422   -9.8364    0.0000 C   0  0
    3.3544  -11.0454    0.0000 C   0  0
    1.8634  -10.8811    0.0000 C   0  0
    1.2603   -9.5077    0.0000 N   0  0
    2.1481   -8.2986    0.0000 C   0  0
  2  1  1  1
  2  3  1  0
  3  4  1  0
  4  5  1  0
  5  6  2  0
  6  7  1  0
  7  8  1  0
  8  9  2  0
  9 10  1  0
 10 11  2  0
 11 12  1  0
 12 13  3  0
 11 14  1  0
 14 15  1  0
 14 16  2  0
 16  8  1  0
  7 17  2  0
 17  4  1  0
  2 18  1  0
 18 19  1  0
 19 20  2  0
 20 21  1  0
 21 22  2  0
 22 23  1  0
 23 24  2  0
 24 19  1  0
M  END
> <assay_chembl_id>
CHEMBL4362990

> <assay_description>
Antiproliferative activity against human 22Rv1 expressing AR assessed as reduction in cell viability incubated for 6 days by CCK-8 assay

> <document_journal>
Eur J Med Chem

> <molecule_chembl_id>
CHEMBL4566259

> <standard_value>
21620

> <IC50_uM>
21.62

> <Activity>
No

> <Canonical_Smiles>
C[C@@H](Cn1ccc(-c2ccc(C#N)c(Cl)c2)n1)Nc1cccnc1

$$$$

  SciTegic03142313312D

 28 31  0  0  1  0            999 V2000
    3.8964    0.7545    0.0000 C   0  0
    3.8990   -0.7455    0.0000 C   0  0  1  0  0  0
    5.2003   -1.4932    0.0000 C   0  0
    6.4990   -0.7409    0.0000 N   0  0
    7.8525   -1.3573    0.0000 C   0  0
    8.8523   -0.2391    0.0000 C   0  0
    8.0978    1.0574    0.0000 C   0  0
    8.7035    2.4305    0.0000 C   0  0
   10.1736    2.7024    0.0000 C   0  0
   10.6739    4.1165    0.0000 C   0  0
    9.6995    5.2569    0.0000 C   0  0
   10.2001    6.6718    0.0000 C   0  0
   10.7004    8.0858    0.0000 N   0  0
    8.2246    4.9832    0.0000 C   0  0
    7.2502    6.1235    0.0000 Cl  0  0
    7.7243    3.5691    0.0000 C   0  0
    6.6317    0.7404    0.0000 N   0  0
    2.6003   -1.4977    0.0000 N   0  0
    1.2990   -0.7500    0.0000 C   0  0
    1.2990    0.7500    0.0000 C   0  0
    0.0000    1.5000    0.0000 C   0  0
   -1.2990    0.7500    0.0000 C   0  0
   -1.2990   -0.7500    0.0000 C   0  0
   -2.5981   -1.5000    0.0000 C   0  0
   -2.5981   -3.0000    0.0000 N   0  0
   -1.2990   -3.7500    0.0000 C   0  0
    0.0000   -3.0000    0.0000 C   0  0
    0.0000   -1.5000    0.0000 C   0  0
  2  1  1  1
  2  3  1  0
  3  4  1  0
  4  5  1  0
  5  6  2  0
  6  7  1  0
  7  8  1  0
  8  9  2  0
  9 10  1  0
 10 11  2  0
 11 12  1  0
 12 13  3  0
 11 14  1  0
 14 15  1  0
 14 16  2  0
 16  8  1  0
  7 17  2  0
 17  4  1  0
  2 18  1  0
 18 19  1  0
 19 20  2  0
 20 21  1  0
 21 22  2  0
 22 23  1  0
 23 24  2  0
 24 25  1  0
 25 26  2  0
 26 27  1  0
 27 28  2  0
 28 19  1  0
 28 23  1  0
M  END
> <assay_chembl_id>
CHEMBL4362990

> <assay_description>
Antiproliferative activity against human 22Rv1 expressing AR assessed as reduction in cell viability incubated for 6 days by CCK-8 assay

> <document_journal>
Eur J Med Chem

> <molecule_chembl_id>
CHEMBL4442652

> <standard_value>
21200

> <IC50_uM>
21.2

> <Activity>
No

> <Canonical_Smiles>
C[C@@H](Cn1ccc(-c2ccc(C#N)c(Cl)c2)n1)Nc1cccc2cnccc12

$$$$

  SciTegic03142313312D

 32 33  0  0  0  0            999 V2000
   -2.0981   -2.3660    0.0000 C   0  0
   -2.0981   -3.3660    0.0000 C   0  0  3  0  0  0
   -2.0981   -4.3660    0.0000 O   0  0
   -3.0981   -3.3660    0.0000 C   0  0
   -3.5981   -4.2320    0.0000 S   0  0
   -4.5981   -4.2320    0.0000 C   0  0
   -5.0981   -5.0981    0.0000 C   0  0
   -6.0981   -5.0981    0.0000 C   0  0
   -6.5980   -4.2321    0.0000 C   0  0
   -6.0980   -3.3660    0.0000 C   0  0
   -6.5980   -2.5000    0.0000 S   0  0
   -7.0980   -3.3660    0.0000 F   0  0
   -7.5980   -2.5000    0.0000 F   0  0
   -7.0980   -1.6340    0.0000 F   0  0
   -6.0980   -1.6340    0.0000 F   0  0
   -5.5980   -2.5000    0.0000 F   0  0
   -5.0981   -3.3660    0.0000 C   0  0
   -1.0981   -3.3660    0.0000 C   0  0
   -0.5981   -4.2321    0.0000 O   0  0
   -0.5981   -2.5000    0.0000 N   0  0
    0.4019   -2.5000    0.0000 C   0  0
    0.9019   -1.6340    0.0000 C   0  0
    1.9019   -1.6340    0.0000 C   0  0
    2.4019   -2.5000    0.0000 C   0  0
    3.4019   -2.5000    0.0000 C   0  0
    4.4019   -2.5000    0.0000 N   0  0
    1.9019   -3.3660    0.0000 C   0  0
    2.4019   -4.2320    0.0000 C   0  0
    3.2679   -3.7320    0.0000 F   0  0
    2.9019   -5.0980    0.0000 F   0  0
    1.5359   -4.7320    0.0000 F   0  0
    0.9019   -3.3660    0.0000 C   0  0
  2  1  1  4
  2  3  1  0
  2  4  1  0
  4  5  1  0
  5  6  1  0
  6  7  2  0
  7  8  1  0
  8  9  2  0
  9 10  1  0
 10 11  1  0
 11 12  1  0
 11 13  1  0
 11 14  1  0
 11 15  1  0
 11 16  1  0
 10 17  2  0
 17  6  1  0
  2 18  1  0
 18 19  2  0
 18 20  1  0
 20 21  1  0
 21 22  2  0
 22 23  1  0
 23 24  2  0
 24 25  1  0
 25 26  3  0
 24 27  1  0
 27 28  1  0
 28 29  1  0
 28 30  1  0
 28 31  1  0
 27 32  2  0
 32 21  1  0
M  END
> <assay_chembl_id>
CHEMBL4367683

> <assay_description>
Antiproliferative activity against human 22Rv1 cells assessed as reduction in cell growth incubated for 96 hrs by propidium iodide based 2D monolayer assay

> <document_journal>
Eur J Med Chem

> <molecule_chembl_id>
CHEMBL4513880

> <standard_value>
20400

> <IC50_uM>
20.4

> <Activity>
No

> <Canonical_Smiles>
CC(O)(CSc1cccc(S(F)(F)(F)(F)F)c1)C(=O)Nc1ccc(C#N)c(C(F)(F)F)c1

$$$$

  SciTegic03142313312D

 32 33  0  0  0  0            999 V2000
   -2.0981   -2.3660    0.0000 C   0  0
   -2.0981   -3.3660    0.0000 C   0  0  3  0  0  0
   -2.0981   -4.3660    0.0000 O   0  0
   -3.0981   -3.3660    0.0000 C   0  0
   -3.5981   -4.2320    0.0000 S   0  0
   -4.5981   -4.2320    0.0000 C   0  0
   -5.0981   -5.0981    0.0000 C   0  0
   -6.0981   -5.0981    0.0000 C   0  0
   -6.5980   -4.2321    0.0000 C   0  0
   -6.0980   -3.3660    0.0000 C   0  0
   -6.5980   -2.5000    0.0000 S   0  0
   -7.0980   -3.3660    0.0000 F   0  0
   -7.5980   -2.5000    0.0000 F   0  0
   -7.0980   -1.6340    0.0000 F   0  0
   -6.0980   -1.6340    0.0000 F   0  0
   -5.5980   -2.5000    0.0000 F   0  0
   -5.0981   -3.3660    0.0000 C   0  0
   -1.0981   -3.3660    0.0000 C   0  0
   -0.5981   -4.2321    0.0000 O   0  0
   -0.5981   -2.5000    0.0000 N   0  0
    0.4019   -2.5000    0.0000 C   0  0
    0.9019   -3.3660    0.0000 C   0  0
    1.9019   -3.3661    0.0000 C   0  0
    2.4019   -2.5001    0.0000 C   0  0
    3.4019   -2.5001    0.0000 C   0  0
    4.4019   -2.5001    0.0000 N   0  0
    1.9019   -1.6340    0.0000 C   0  0
    0.9019   -1.6340    0.0000 C   0  0
    0.4019   -0.7680    0.0000 C   0  0
   -0.4641   -1.2680    0.0000 F   0  0
   -0.0981    0.0981    0.0000 F   0  0
    1.2680   -0.2680    0.0000 F   0  0
  2  1  1  4
  2  3  1  0
  2  4  1  0
  4  5  1  0
  5  6  1  0
  6  7  2  0
  7  8  1  0
  8  9  2  0
  9 10  1  0
 10 11  1  0
 11 12  1  0
 11 13  1  0
 11 14  1  0
 11 15  1  0
 11 16  1  0
 10 17  2  0
 17  6  1  0
  2 18  1  0
 18 19  2  0
 18 20  1  0
 20 21  1  0
 21 22  2  0
 22 23  1  0
 23 24  2  0
 24 25  1  0
 25 26  3  0
 24 27  1  0
 27 28  2  0
 28 21  1  0
 28 29  1  0
 29 30  1  0
 29 31  1  0
 29 32  1  0
M  END
> <assay_chembl_id>
CHEMBL4367683

> <assay_description>
Antiproliferative activity against human 22Rv1 cells assessed as reduction in cell growth incubated for 96 hrs by propidium iodide based 2D monolayer assay

> <document_journal>
Eur J Med Chem

> <molecule_chembl_id>
CHEMBL4448280

> <standard_value>
21600

> <IC50_uM>
21.6

> <Activity>
No

> <Canonical_Smiles>
CC(O)(CSc1cccc(S(F)(F)(F)(F)F)c1)C(=O)Nc1ccc(C#N)cc1C(F)(F)F

$$$$

  SciTegic03142313312D

 32 33  0  0  0  0            999 V2000
    2.0981    4.3660    0.0000 C   0  0
    2.0981    5.3660    0.0000 C   0  0  3  0  0  0
    2.0981    6.3660    0.0000 O   0  0
    1.0981    5.3660    0.0000 C   0  0
    0.5981    4.5000    0.0000 S   0  0
   -0.4019    4.5000    0.0000 C   0  0
   -0.9019    5.3660    0.0000 C   0  0
   -1.9019    5.3660    0.0000 C   0  0
   -2.4019    4.5000    0.0000 C   0  0
   -3.4019    4.5000    0.0000 S   0  0
   -2.9019    3.6340    0.0000 F   0  0
   -3.9019    3.6340    0.0000 F   0  0
   -4.4019    4.5000    0.0000 F   0  0
   -3.9019    5.3660    0.0000 F   0  0
   -2.9019    5.3660    0.0000 F   0  0
   -1.9019    3.6340    0.0000 C   0  0
   -0.9019    3.6340    0.0000 C   0  0
    3.0981    5.3660    0.0000 C   0  0
    3.5981    4.5000    0.0000 O   0  0
    3.5981    6.2320    0.0000 N   0  0
    4.5981    6.2320    0.0000 C   0  0
    5.0981    5.3660    0.0000 C   0  0
    6.0980    5.3660    0.0000 C   0  0
    6.5980    6.2321    0.0000 C   0  0
    7.5980    6.2321    0.0000 S   0  0
    7.0980    7.0981    0.0000 F   0  0
    8.0980    7.0981    0.0000 F   0  0
    8.5980    6.2320    0.0000 F   0  0
    8.0980    5.3660    0.0000 F   0  0
    7.0980    5.3660    0.0000 F   0  0
    6.0981    7.0981    0.0000 C   0  0
    5.0981    7.0981    0.0000 C   0  0
  2  1  1  4
  2  3  1  0
  2  4  1  0
  4  5  1  0
  5  6  1  0
  6  7  2  0
  7  8  1  0
  8  9  2  0
  9 10  1  0
 10 11  1  0
 10 12  1  0
 10 13  1  0
 10 14  1  0
 10 15  1  0
  9 16  1  0
 16 17  2  0
 17  6  1  0
  2 18  1  0
 18 19  2  0
 18 20  1  0
 20 21  1  0
 21 22  2  0
 22 23  1  0
 23 24  2  0
 24 25  1  0
 25 26  1  0
 25 27  1  0
 25 28  1  0
 25 29  1  0
 25 30  1  0
 24 31  1  0
 31 32  2  0
 32 21  1  0
M  END
> <assay_chembl_id>
CHEMBL4367683

> <assay_description>
Antiproliferative activity against human 22Rv1 cells assessed as reduction in cell growth incubated for 96 hrs by propidium iodide based 2D monolayer assay

> <document_journal>
Eur J Med Chem

> <molecule_chembl_id>
CHEMBL4556194

> <standard_value>
24400

> <IC50_uM>
24.4

> <Activity>
No

> <Canonical_Smiles>
CC(O)(CSc1ccc(S(F)(F)(F)(F)F)cc1)C(=O)Nc1ccc(S(F)(F)(F)(F)F)cc1

$$$$

  SciTegic03142313312D

 30 31  0  0  0  0            999 V2000
   -2.0981   -2.3660    0.0000 C   0  0
   -2.0981   -3.3660    0.0000 C   0  0  3  0  0  0
   -2.0981   -4.3660    0.0000 O   0  0
   -3.0981   -3.3660    0.0000 C   0  0
   -3.5981   -4.2320    0.0000 S   0  0
   -4.5981   -4.2320    0.0000 C   0  0
   -5.0981   -5.0981    0.0000 C   0  0
   -6.0981   -5.0981    0.0000 C   0  0
   -6.5980   -4.2321    0.0000 C   0  0
   -6.0980   -3.3660    0.0000 C   0  0
   -6.5980   -2.5000    0.0000 C   0  0
   -7.4641   -3.0000    0.0000 F   0  0
   -7.0980   -1.6340    0.0000 F   0  0
   -5.7320   -2.0000    0.0000 F   0  0
   -5.0981   -3.3660    0.0000 C   0  0
   -1.0981   -3.3660    0.0000 C   0  0
   -0.5981   -4.2321    0.0000 O   0  0
   -0.5981   -2.5000    0.0000 N   0  0
    0.4019   -2.5000    0.0000 C   0  0
    0.9019   -3.3660    0.0000 C   0  0
    1.9019   -3.3660    0.0000 C   0  0
    2.4019   -2.5000    0.0000 C   0  0
    3.4019   -2.5000    0.0000 S   0  0
    2.9019   -1.6340    0.0000 F   0  0
    3.9019   -1.6340    0.0000 F   0  0
    4.4019   -2.5000    0.0000 F   0  0
    3.9019   -3.3660    0.0000 F   0  0
    2.9019   -3.3660    0.0000 F   0  0
    1.9019   -1.6340    0.0000 C   0  0
    0.9019   -1.6340    0.0000 C   0  0
  2  1  1  4
  2  3  1  0
  2  4  1  0
  4  5  1  0
  5  6  1  0
  6  7  2  0
  7  8  1  0
  8  9  2  0
  9 10  1  0
 10 11  1  0
 11 12  1  0
 11 13  1  0
 11 14  1  0
 10 15  2  0
 15  6  1  0
  2 16  1  0
 16 17  2  0
 16 18  1  0
 18 19  1  0
 19 20  2  0
 20 21  1  0
 21 22  2  0
 22 23  1  0
 23 24  1  0
 23 25  1  0
 23 26  1  0
 23 27  1  0
 23 28  1  0
 22 29  1  0
 29 30  2  0
 30 19  1  0
M  END
> <assay_chembl_id>
CHEMBL4367683

> <assay_description>
Antiproliferative activity against human 22Rv1 cells assessed as reduction in cell growth incubated for 96 hrs by propidium iodide based 2D monolayer assay

> <document_journal>
Eur J Med Chem

> <molecule_chembl_id>
CHEMBL4461145

> <standard_value>
23400

> <IC50_uM>
23.4

> <Activity>
No

> <Canonical_Smiles>
CC(O)(CSc1cccc(C(F)(F)F)c1)C(=O)Nc1ccc(S(F)(F)(F)(F)F)cc1

$$$$

  SciTegic03142313312D

 30 31  0  0  0  0            999 V2000
    2.0981    4.3660    0.0000 C   0  0
    2.0981    5.3660    0.0000 C   0  0  3  0  0  0
    2.0981    6.3660    0.0000 O   0  0
    1.0981    5.3660    0.0000 C   0  0
    0.5981    4.5000    0.0000 S   0  0
   -0.4019    4.5000    0.0000 C   0  0
   -0.9019    5.3660    0.0000 C   0  0
   -1.9019    5.3661    0.0000 C   0  0
   -2.4019    4.5001    0.0000 C   0  0
   -3.4019    4.5001    0.0000 C   0  0
   -3.4019    3.5001    0.0000 F   0  0
   -4.4019    4.5001    0.0000 F   0  0
   -3.4019    5.5001    0.0000 F   0  0
   -1.9019    3.6340    0.0000 C   0  0
   -0.9019    3.6340    0.0000 N   0  0
    3.0981    5.3660    0.0000 C   0  0
    3.5981    4.5000    0.0000 O   0  0
    3.5981    6.2320    0.0000 N   0  0
    4.5981    6.2320    0.0000 C   0  0
    5.0981    5.3660    0.0000 C   0  0
    6.0980    5.3660    0.0000 C   0  0
    6.5980    6.2321    0.0000 C   0  0
    7.5980    6.2321    0.0000 S   0  0
    7.0980    7.0981    0.0000 F   0  0
    8.0980    7.0981    0.0000 F   0  0
    8.5980    6.2320    0.0000 F   0  0
    8.0980    5.3660    0.0000 F   0  0
    7.0980    5.3660    0.0000 F   0  0
    6.0981    7.0981    0.0000 C   0  0
    5.0981    7.0981    0.0000 C   0  0
  2  1  1  4
  2  3  1  0
  2  4  1  0
  4  5  1  0
  5  6  1  0
  6  7  2  0
  7  8  1  0
  8  9  2  0
  9 10  1  0
 10 11  1  0
 10 12  1  0
 10 13  1  0
  9 14  1  0
 14 15  2  0
 15  6  1  0
  2 16  1  0
 16 17  2  0
 16 18  1  0
 18 19  1  0
 19 20  2  0
 20 21  1  0
 21 22  2  0
 22 23  1  0
 23 24  1  0
 23 25  1  0
 23 26  1  0
 23 27  1  0
 23 28  1  0
 22 29  1  0
 29 30  2  0
 30 19  1  0
M  END
> <assay_chembl_id>
CHEMBL4367683

> <assay_description>
Antiproliferative activity against human 22Rv1 cells assessed as reduction in cell growth incubated for 96 hrs by propidium iodide based 2D monolayer assay

> <document_journal>
Eur J Med Chem

> <molecule_chembl_id>
CHEMBL4466371

> <standard_value>
20000

> <IC50_uM>
20

> <Activity>
No

> <Canonical_Smiles>
CC(O)(CSc1ccc(C(F)(F)F)cn1)C(=O)Nc1ccc(S(F)(F)(F)(F)F)cc1

$$$$

  SciTegic03142313312D

 27 28  0  0  0  0            999 V2000
   -2.0981   -2.3660    0.0000 C   0  0
   -2.0981   -3.3660    0.0000 C   0  0  3  0  0  0
   -2.0981   -4.3660    0.0000 O   0  0
   -1.0981   -3.3660    0.0000 C   0  0
   -0.5981   -2.5000    0.0000 S   0  0
    0.4019   -2.5000    0.0000 C   0  0
    0.9019   -1.6340    0.0000 C   0  0
    1.9019   -1.6340    0.0000 C   0  0
    2.4019   -2.5000    0.0000 C   0  0
    3.4019   -2.5000    0.0000 F   0  0
    1.9019   -3.3660    0.0000 C   0  0
    0.9019   -3.3660    0.0000 C   0  0
   -3.0981   -3.3660    0.0000 C   0  0
   -3.5981   -2.5000    0.0000 O   0  0
   -3.5981   -4.2320    0.0000 N   0  0
   -4.5981   -4.2320    0.0000 C   0  0
   -5.0981   -5.0981    0.0000 C   0  0
   -6.0981   -5.0981    0.0000 C   0  0
   -6.5980   -4.2321    0.0000 C   0  0
   -6.0980   -3.3660    0.0000 C   0  0
   -6.5980   -2.5000    0.0000 S   0  0
   -7.0980   -3.3660    0.0000 F   0  0
   -7.5980   -2.5000    0.0000 F   0  0
   -7.0980   -1.6340    0.0000 F   0  0
   -6.0980   -1.6340    0.0000 F   0  0
   -5.5980   -2.5000    0.0000 F   0  0
   -5.0981   -3.3660    0.0000 C   0  0
  2  1  1  4
  2  3  1  0
  2  4  1  0
  4  5  1  0
  5  6  1  0
  6  7  2  0
  7  8  1  0
  8  9  2  0
  9 10  1  0
  9 11  1  0
 11 12  2  0
 12  6  1  0
  2 13  1  0
 13 14  2  0
 13 15  1  0
 15 16  1  0
 16 17  2  0
 17 18  1  0
 18 19  2  0
 19 20  1  0
 20 21  1  0
 21 22  1  0
 21 23  1  0
 21 24  1  0
 21 25  1  0
 21 26  1  0
 20 27  2  0
 27 16  1  0
M  END
> <assay_chembl_id>
CHEMBL4367683

> <assay_description>
Antiproliferative activity against human 22Rv1 cells assessed as reduction in cell growth incubated for 96 hrs by propidium iodide based 2D monolayer assay

> <document_journal>
Eur J Med Chem

> <molecule_chembl_id>
CHEMBL4589651

> <standard_value>
30200

> <IC50_uM>
30.2

> <Activity>
No

> <Canonical_Smiles>
CC(O)(CSc1ccc(F)cc1)C(=O)Nc1cccc(S(F)(F)(F)(F)F)c1

$$$$

  SciTegic03142313312D

 30 31  0  0  0  0            999 V2000
   -2.0981   -2.3660    0.0000 C   0  0
   -2.0981   -3.3660    0.0000 C   0  0  3  0  0  0
   -2.0981   -4.3660    0.0000 O   0  0
   -1.0981   -3.3660    0.0000 C   0  0
   -0.5981   -2.5000    0.0000 S   0  0
    0.4019   -2.5000    0.0000 C   0  0
    0.9019   -3.3660    0.0000 C   0  0
    1.9019   -3.3660    0.0000 C   0  0
    2.4019   -2.5000    0.0000 C   0  0
    3.4019   -2.5000    0.0000 C   0  0
    3.4019   -1.5000    0.0000 F   0  0
    4.4019   -2.5000    0.0000 F   0  0
    3.4019   -3.5000    0.0000 F   0  0
    1.9019   -1.6340    0.0000 C   0  0
    0.9019   -1.6340    0.0000 C   0  0
   -3.0981   -3.3660    0.0000 C   0  0
   -3.5981   -2.5000    0.0000 O   0  0
   -3.5981   -4.2320    0.0000 N   0  0
   -4.5981   -4.2320    0.0000 C   0  0
   -5.0981   -5.0981    0.0000 C   0  0
   -6.0981   -5.0981    0.0000 C   0  0
   -6.5980   -4.2321    0.0000 C   0  0
   -6.0980   -3.3660    0.0000 C   0  0
   -6.5980   -2.5000    0.0000 S   0  0
   -7.0980   -3.3660    0.0000 F   0  0
   -7.5980   -2.5000    0.0000 F   0  0
   -7.0980   -1.6340    0.0000 F   0  0
   -6.0980   -1.6340    0.0000 F   0  0
   -5.5980   -2.5000    0.0000 F   0  0
   -5.0981   -3.3660    0.0000 C   0  0
  2  1  1  4
  2  3  1  0
  2  4  1  0
  4  5  1  0
  5  6  1  0
  6  7  2  0
  7  8  1  0
  8  9  2  0
  9 10  1  0
 10 11  1  0
 10 12  1  0
 10 13  1  0
  9 14  1  0
 14 15  2  0
 15  6  1  0
  2 16  1  0
 16 17  2  0
 16 18  1  0
 18 19  1  0
 19 20  2  0
 20 21  1  0
 21 22  2  0
 22 23  1  0
 23 24  1  0
 24 25  1  0
 24 26  1  0
 24 27  1  0
 24 28  1  0
 24 29  1  0
 23 30  2  0
 30 19  1  0
M  END
> <assay_chembl_id>
CHEMBL4367683

> <assay_description>
Antiproliferative activity against human 22Rv1 cells assessed as reduction in cell growth incubated for 96 hrs by propidium iodide based 2D monolayer assay

> <document_journal>
Eur J Med Chem

> <molecule_chembl_id>
CHEMBL4464114

> <standard_value>
26900

> <IC50_uM>
26.9

> <Activity>
No

> <Canonical_Smiles>
CC(O)(CSc1ccc(C(F)(F)F)cc1)C(=O)Nc1cccc(S(F)(F)(F)(F)F)c1

$$$$

  SciTegic03142313312D

 32 33  0  0  0  0            999 V2000
   -2.0981   -2.3660    0.0000 C   0  0
   -2.0981   -3.3660    0.0000 C   0  0  3  0  0  0
   -2.0981   -4.3660    0.0000 O   0  0
   -1.0981   -3.3660    0.0000 C   0  0
   -0.5981   -2.5000    0.0000 O   0  0
    0.4019   -2.5000    0.0000 C   0  0
    0.9019   -3.3660    0.0000 C   0  0
    1.9019   -3.3660    0.0000 C   0  0
    2.4019   -2.5000    0.0000 C   0  0
    3.4019   -2.5000    0.0000 S   0  0
    2.9019   -1.6340    0.0000 F   0  0
    3.9019   -1.6340    0.0000 F   0  0
    4.4019   -2.5000    0.0000 F   0  0
    3.9019   -3.3660    0.0000 F   0  0
    2.9019   -3.3660    0.0000 F   0  0
    1.9019   -1.6340    0.0000 C   0  0
    0.9019   -1.6340    0.0000 C   0  0
   -3.0981   -3.3660    0.0000 C   0  0
   -3.5981   -2.5000    0.0000 O   0  0
   -3.5981   -4.2320    0.0000 N   0  0
   -4.5981   -4.2320    0.0000 C   0  0
   -5.0981   -5.0981    0.0000 C   0  0
   -6.0981   -5.0981    0.0000 C   0  0
   -6.5980   -4.2321    0.0000 C   0  0
   -7.5980   -4.2321    0.0000 C   0  0
   -8.5980   -4.2320    0.0000 N   0  0
   -6.0980   -3.3660    0.0000 C   0  0
   -6.5980   -2.5000    0.0000 C   0  0
   -7.4641   -3.0000    0.0000 F   0  0
   -7.0980   -1.6340    0.0000 F   0  0
   -5.7320   -2.0000    0.0000 F   0  0
   -5.0981   -3.3660    0.0000 C   0  0
  2  1  1  4
  2  3  1  0
  2  4  1  0
  4  5  1  0
  5  6  1  0
  6  7  2  0
  7  8  1  0
  8  9  2  0
  9 10  1  0
 10 11  1  0
 10 12  1  0
 10 13  1  0
 10 14  1  0
 10 15  1  0
  9 16  1  0
 16 17  2  0
 17  6  1  0
  2 18  1  0
 18 19  2  0
 18 20  1  0
 20 21  1  0
 21 22  2  0
 22 23  1  0
 23 24  2  0
 24 25  1  0
 25 26  3  0
 24 27  1  0
 27 28  1  0
 28 29  1  0
 28 30  1  0
 28 31  1  0
 27 32  2  0
 32 21  1  0
M  END
> <assay_chembl_id>
CHEMBL4367683

> <assay_description>
Antiproliferative activity against human 22Rv1 cells assessed as reduction in cell growth incubated for 96 hrs by propidium iodide based 2D monolayer assay

> <document_journal>
Eur J Med Chem

> <molecule_chembl_id>
CHEMBL4522784

> <standard_value>
28200

> <IC50_uM>
28.2

> <Activity>
No

> <Canonical_Smiles>
CC(O)(COc1ccc(S(F)(F)(F)(F)F)cc1)C(=O)Nc1ccc(C#N)c(C(F)(F)F)c1

$$$$

  SciTegic03142313312D

 28 29  0  0  0  0            999 V2000
    5.1937   -3.0093    0.0000 C   0  0
    3.8933   -3.7570    0.0000 C   0  0  3  0  0  0
    3.8962   -2.2570    0.0000 O   0  0
    2.5951   -3.0039    0.0000 C   0  0
    2.5973   -1.5031    0.0000 O   0  0
    1.2990   -0.7500    0.0000 C   0  0
    1.2990    0.7500    0.0000 C   0  0
    0.0000    1.5000    0.0000 C   0  0
   -1.2990    0.7500    0.0000 C   0  0
   -2.5988    1.5004    0.0000 C   0  0
   -3.8978    2.2504    0.0000 N   0  0
   -1.2990   -0.7500    0.0000 C   0  0
    0.0000   -1.5000    0.0000 C   0  0
    3.8912   -5.2578    0.0000 C   0  0
    2.5909   -6.0056    0.0000 O   0  0
    5.1894   -6.0109    0.0000 N   0  0
    5.1873   -7.5117    0.0000 C   0  0
    6.4837   -8.2663    0.0000 C   0  0
    6.4785   -9.7663    0.0000 C   0  0
    5.1769  -10.5118    0.0000 C   0  0
    5.1717  -12.0126    0.0000 C   0  0
    5.1665  -13.5126    0.0000 N   0  0
    3.8804   -9.7573    0.0000 C   0  0
    2.5781  -10.5032    0.0000 C   0  0
    2.5720  -12.0032    0.0000 F   0  0
    1.2819   -9.7483    0.0000 F   0  0
    1.2761  -11.2481    0.0000 F   0  0
    3.8856   -8.2573    0.0000 C   0  0
  2  1  1  4
  2  3  1  0
  2  4  1  0
  4  5  1  0
  5  6  1  0
  6  7  2  0
  7  8  1  0
  8  9  2  0
  9 10  1  0
 10 11  3  0
  9 12  1  0
 12 13  2  0
 13  6  1  0
  2 14  1  0
 14 15  2  0
 14 16  1  0
 16 17  1  0
 17 18  2  0
 18 19  1  0
 19 20  2  0
 20 21  1  0
 21 22  3  0
 20 23  1  0
 23 24  1  0
 24 25  1  0
 24 26  1  0
 24 27  1  0
 23 28  2  0
 28 17  1  0
M  END
> <assay_chembl_id>
CHEMBL4367683

> <assay_description>
Antiproliferative activity against human 22Rv1 cells assessed as reduction in cell growth incubated for 96 hrs by propidium iodide based 2D monolayer assay

> <document_journal>
Eur J Med Chem

> <molecule_chembl_id>
CHEMBL3185021

> <standard_value>
24800

> <IC50_uM>
24.8

> <Activity>
No

> <Canonical_Smiles>
CC(O)(COc1ccc(C#N)cc1)C(=O)Nc1ccc(C#N)c(C(F)(F)F)c1

$$$$

  SciTegic03142313312D

 31 32  0  0  0  0            999 V2000
    2.0981    4.3660    0.0000 C   0  0
    2.0981    5.3660    0.0000 C   0  0  3  0  0  0
    2.0981    6.3660    0.0000 O   0  0
    1.0981    5.3660    0.0000 C   0  0
    0.5981    4.5000    0.0000 O   0  0
   -0.4019    4.5000    0.0000 C   0  0
   -0.9019    5.3660    0.0000 C   0  0
   -1.9019    5.3660    0.0000 C   0  0
   -2.4019    4.5000    0.0000 C   0  0
   -3.4019    4.5000    0.0000 O   0  0
   -3.9019    5.3660    0.0000 C   0  0
   -4.7679    4.8660    0.0000 F   0  0
   -4.4019    6.2320    0.0000 F   0  0
   -3.0359    5.8660    0.0000 F   0  0
   -1.9019    3.6340    0.0000 C   0  0
   -0.9019    3.6340    0.0000 C   0  0
    3.0981    5.3660    0.0000 C   0  0
    3.5981    4.5000    0.0000 O   0  0
    3.5981    6.2320    0.0000 N   0  0
    4.5981    6.2320    0.0000 C   0  0
    5.0981    5.3660    0.0000 C   0  0
    6.0980    5.3660    0.0000 C   0  0
    6.5980    6.2321    0.0000 C   0  0
    7.5980    6.2321    0.0000 S   0  0
    7.0980    7.0981    0.0000 F   0  0
    8.0980    7.0981    0.0000 F   0  0
    8.5980    6.2320    0.0000 F   0  0
    8.0980    5.3660    0.0000 F   0  0
    7.0980    5.3660    0.0000 F   0  0
    6.0981    7.0981    0.0000 C   0  0
    5.0981    7.0981    0.0000 C   0  0
  2  1  1  4
  2  3  1  0
  2  4  1  0
  4  5  1  0
  5  6  1  0
  6  7  2  0
  7  8  1  0
  8  9  2  0
  9 10  1  0
 10 11  1  0
 11 12  1  0
 11 13  1  0
 11 14  1  0
  9 15  1  0
 15 16  2  0
 16  6  1  0
  2 17  1  0
 17 18  2  0
 17 19  1  0
 19 20  1  0
 20 21  2  0
 21 22  1  0
 22 23  2  0
 23 24  1  0
 24 25  1  0
 24 26  1  0
 24 27  1  0
 24 28  1  0
 24 29  1  0
 23 30  1  0
 30 31  2  0
 31 20  1  0
M  END
> <assay_chembl_id>
CHEMBL4367683

> <assay_description>
Antiproliferative activity against human 22Rv1 cells assessed as reduction in cell growth incubated for 96 hrs by propidium iodide based 2D monolayer assay

> <document_journal>
Eur J Med Chem

> <molecule_chembl_id>
CHEMBL4513921

> <standard_value>
27900

> <IC50_uM>
27.9

> <Activity>
No

> <Canonical_Smiles>
CC(O)(COc1ccc(OC(F)(F)F)cc1)C(=O)Nc1ccc(S(F)(F)(F)(F)F)cc1

$$$$

  SciTegic03142313312D

 28 29  0  0  0  0            999 V2000
   -2.0981   -2.3660    0.0000 C   0  0
   -2.0981   -3.3660    0.0000 C   0  0  3  0  0  0
   -2.0981   -4.3660    0.0000 O   0  0
   -3.0981   -3.3660    0.0000 C   0  0
   -3.5981   -4.2320    0.0000 O   0  0
   -4.5981   -4.2320    0.0000 C   0  0
   -5.0981   -5.0981    0.0000 C   0  0
   -6.0981   -5.0981    0.0000 C   0  0
   -6.5980   -4.2321    0.0000 C   0  0
   -7.5980   -4.2321    0.0000 C   0  0
   -8.5980   -4.2320    0.0000 N   0  0
   -6.0980   -3.3660    0.0000 C   0  0
   -5.0981   -3.3660    0.0000 C   0  0
   -1.0981   -3.3660    0.0000 C   0  0
   -0.5981   -4.2321    0.0000 O   0  0
   -0.5981   -2.5000    0.0000 N   0  0
    0.4019   -2.5000    0.0000 C   0  0
    0.9019   -3.3660    0.0000 C   0  0
    1.9019   -3.3660    0.0000 C   0  0
    2.4019   -2.5000    0.0000 C   0  0
    3.4019   -2.5000    0.0000 S   0  0
    2.9019   -1.6340    0.0000 F   0  0
    3.9019   -1.6340    0.0000 F   0  0
    4.4019   -2.5000    0.0000 F   0  0
    3.9019   -3.3660    0.0000 F   0  0
    2.9019   -3.3660    0.0000 F   0  0
    1.9019   -1.6340    0.0000 C   0  0
    0.9019   -1.6340    0.0000 C   0  0
  2  1  1  4
  2  3  1  0
  2  4  1  0
  4  5  1  0
  5  6  1  0
  6  7  2  0
  7  8  1  0
  8  9  2  0
  9 10  1  0
 10 11  3  0
  9 12  1  0
 12 13  2  0
 13  6  1  0
  2 14  1  0
 14 15  2  0
 14 16  1  0
 16 17  1  0
 17 18  2  0
 18 19  1  0
 19 20  2  0
 20 21  1  0
 21 22  1  0
 21 23  1  0
 21 24  1  0
 21 25  1  0
 21 26  1  0
 20 27  1  0
 27 28  2  0
 28 17  1  0
M  END
> <assay_chembl_id>
CHEMBL4367683

> <assay_description>
Antiproliferative activity against human 22Rv1 cells assessed as reduction in cell growth incubated for 96 hrs by propidium iodide based 2D monolayer assay

> <document_journal>
Eur J Med Chem

> <molecule_chembl_id>
CHEMBL4551430

> <standard_value>
26100

> <IC50_uM>
26.1

> <Activity>
No

> <Canonical_Smiles>
CC(O)(COc1ccc(C#N)cc1)C(=O)Nc1ccc(S(F)(F)(F)(F)F)cc1

$$$$

  SciTegic03142313312D

 29 30  0  0  0  0            999 V2000
   -2.0981   -2.3660    0.0000 C   0  0
   -2.0981   -3.3660    0.0000 C   0  0  3  0  0  0
   -2.0981   -4.3660    0.0000 O   0  0
   -3.0981   -3.3660    0.0000 C   0  0
   -3.5981   -4.2320    0.0000 O   0  0
   -4.5981   -4.2320    0.0000 C   0  0
   -5.0981   -5.0981    0.0000 C   0  0
   -6.0981   -5.0981    0.0000 C   0  0
   -6.5980   -4.2321    0.0000 C   0  0
   -7.5980   -4.2321    0.0000 C   0  0
   -8.5980   -4.2320    0.0000 N   0  0
   -6.0980   -3.3660    0.0000 C   0  0
   -6.5980   -2.5000    0.0000 F   0  0
   -5.0981   -3.3660    0.0000 C   0  0
   -1.0981   -3.3660    0.0000 C   0  0
   -0.5981   -4.2321    0.0000 O   0  0
   -0.5981   -2.5000    0.0000 N   0  0
    0.4019   -2.5000    0.0000 C   0  0
    0.9019   -3.3660    0.0000 C   0  0
    1.9019   -3.3660    0.0000 C   0  0
    2.4019   -2.5000    0.0000 C   0  0
    3.4019   -2.5000    0.0000 S   0  0
    2.9019   -1.6340    0.0000 F   0  0
    3.9019   -1.6340    0.0000 F   0  0
    4.4019   -2.5000    0.0000 F   0  0
    3.9019   -3.3660    0.0000 F   0  0
    2.9019   -3.3660    0.0000 F   0  0
    1.9019   -1.6340    0.0000 C   0  0
    0.9019   -1.6340    0.0000 C   0  0
  2  1  1  4
  2  3  1  0
  2  4  1  0
  4  5  1  0
  5  6  1  0
  6  7  2  0
  7  8  1  0
  8  9  2  0
  9 10  1  0
 10 11  3  0
  9 12  1  0
 12 13  1  0
 12 14  2  0
 14  6  1  0
  2 15  1  0
 15 16  2  0
 15 17  1  0
 17 18  1  0
 18 19  2  0
 19 20  1  0
 20 21  2  0
 21 22  1  0
 22 23  1  0
 22 24  1  0
 22 25  1  0
 22 26  1  0
 22 27  1  0
 21 28  1  0
 28 29  2  0
 29 18  1  0
M  END
> <assay_chembl_id>
CHEMBL4367683

> <assay_description>
Antiproliferative activity against human 22Rv1 cells assessed as reduction in cell growth incubated for 96 hrs by propidium iodide based 2D monolayer assay

> <document_journal>
Eur J Med Chem

> <molecule_chembl_id>
CHEMBL4576275

> <standard_value>
24300

> <IC50_uM>
24.3

> <Activity>
No

> <Canonical_Smiles>
CC(O)(COc1ccc(C#N)c(F)c1)C(=O)Nc1ccc(S(F)(F)(F)(F)F)cc1

$$$$

  SciTegic03142313312D

 32 33  0  0  0  0            999 V2000
   -2.0981   -2.3660    0.0000 C   0  0
   -2.0981   -3.3660    0.0000 C   0  0  3  0  0  0
   -2.0981   -4.3660    0.0000 O   0  0
   -1.0981   -3.3660    0.0000 C   0  0
   -0.5981   -2.5000    0.0000 O   0  0
    0.4019   -2.5000    0.0000 C   0  0
    0.9019   -1.6340    0.0000 C   0  0
    1.9019   -1.6340    0.0000 C   0  0
    2.4019   -2.5000    0.0000 C   0  0
    1.9019   -3.3660    0.0000 C   0  0
    2.4019   -4.2320    0.0000 S   0  0
    2.9019   -3.3660    0.0000 F   0  0
    3.4019   -4.2320    0.0000 F   0  0
    2.9019   -5.0980    0.0000 F   0  0
    1.9019   -5.0981    0.0000 F   0  0
    1.4019   -4.2320    0.0000 F   0  0
    0.9019   -3.3660    0.0000 C   0  0
   -3.0981   -3.3660    0.0000 C   0  0
   -3.5981   -2.5000    0.0000 O   0  0
   -3.5981   -4.2320    0.0000 N   0  0
   -4.5981   -4.2320    0.0000 C   0  0
   -5.0981   -5.0981    0.0000 C   0  0
   -6.0981   -5.0981    0.0000 C   0  0
   -6.5980   -4.2321    0.0000 C   0  0
   -6.0980   -3.3660    0.0000 C   0  0
   -6.5980   -2.5000    0.0000 S   0  0
   -7.0980   -3.3660    0.0000 F   0  0
   -7.5980   -2.5000    0.0000 F   0  0
   -7.0980   -1.6340    0.0000 F   0  0
   -6.0980   -1.6340    0.0000 F   0  0
   -5.5980   -2.5000    0.0000 F   0  0
   -5.0981   -3.3660    0.0000 C   0  0
  2  1  1  4
  2  3  1  0
  2  4  1  0
  4  5  1  0
  5  6  1  0
  6  7  2  0
  7  8  1  0
  8  9  2  0
  9 10  1  0
 10 11  1  0
 11 12  1  0
 11 13  1  0
 11 14  1  0
 11 15  1  0
 11 16  1  0
 10 17  2  0
 17  6  1  0
  2 18  1  0
 18 19  2  0
 18 20  1  0
 20 21  1  0
 21 22  2  0
 22 23  1  0
 23 24  2  0
 24 25  1  0
 25 26  1  0
 26 27  1  0
 26 28  1  0
 26 29  1  0
 26 30  1  0
 26 31  1  0
 25 32  2  0
 32 21  1  0
M  END
> <assay_chembl_id>
CHEMBL4367683

> <assay_description>
Antiproliferative activity against human 22Rv1 cells assessed as reduction in cell growth incubated for 96 hrs by propidium iodide based 2D monolayer assay

> <document_journal>
Eur J Med Chem

> <molecule_chembl_id>
CHEMBL4579097

> <standard_value>
27300

> <IC50_uM>
27.3

> <Activity>
No

> <Canonical_Smiles>
CC(O)(COc1cccc(S(F)(F)(F)(F)F)c1)C(=O)Nc1cccc(S(F)(F)(F)(F)F)c1

$$$$

  SciTegic03142313312D

 30 31  0  0  0  0            999 V2000
   -2.0981   -2.3660    0.0000 C   0  0
   -2.0981   -3.3660    0.0000 C   0  0  3  0  0  0
   -2.0981   -4.3660    0.0000 O   0  0
   -1.0981   -3.3660    0.0000 C   0  0
   -0.5981   -2.5000    0.0000 O   0  0
    0.4019   -2.5000    0.0000 C   0  0
    0.9019   -1.6340    0.0000 C   0  0
    1.9019   -1.6340    0.0000 C   0  0
    2.4019   -2.5000    0.0000 C   0  0
    1.9019   -3.3660    0.0000 C   0  0
    2.4019   -4.2320    0.0000 C   0  0
    3.2679   -3.7320    0.0000 F   0  0
    2.9019   -5.0980    0.0000 F   0  0
    1.5359   -4.7320    0.0000 F   0  0
    0.9019   -3.3660    0.0000 C   0  0
   -3.0981   -3.3660    0.0000 C   0  0
   -3.5981   -2.5000    0.0000 O   0  0
   -3.5981   -4.2320    0.0000 N   0  0
   -4.5981   -4.2320    0.0000 C   0  0
   -5.0981   -5.0981    0.0000 C   0  0
   -6.0981   -5.0981    0.0000 C   0  0
   -6.5980   -4.2321    0.0000 C   0  0
   -6.0980   -3.3660    0.0000 C   0  0
   -6.5980   -2.5000    0.0000 S   0  0
   -7.0980   -3.3660    0.0000 F   0  0
   -7.5980   -2.5000    0.0000 F   0  0
   -7.0980   -1.6340    0.0000 F   0  0
   -6.0980   -1.6340    0.0000 F   0  0
   -5.5980   -2.5000    0.0000 F   0  0
   -5.0981   -3.3660    0.0000 C   0  0
  2  1  1  4
  2  3  1  0
  2  4  1  0
  4  5  1  0
  5  6  1  0
  6  7  2  0
  7  8  1  0
  8  9  2  0
  9 10  1  0
 10 11  1  0
 11 12  1  0
 11 13  1  0
 11 14  1  0
 10 15  2  0
 15  6  1  0
  2 16  1  0
 16 17  2  0
 16 18  1  0
 18 19  1  0
 19 20  2  0
 20 21  1  0
 21 22  2  0
 22 23  1  0
 23 24  1  0
 24 25  1  0
 24 26  1  0
 24 27  1  0
 24 28  1  0
 24 29  1  0
 23 30  2  0
 30 19  1  0
M  END
> <assay_chembl_id>
CHEMBL4367683

> <assay_description>
Antiproliferative activity against human 22Rv1 cells assessed as reduction in cell growth incubated for 96 hrs by propidium iodide based 2D monolayer assay

> <document_journal>
Eur J Med Chem

> <molecule_chembl_id>
CHEMBL4525832

> <standard_value>
28900

> <IC50_uM>
28.9

> <Activity>
No

> <Canonical_Smiles>
CC(O)(COc1cccc(C(F)(F)F)c1)C(=O)Nc1cccc(S(F)(F)(F)(F)F)c1

$$$$

  SciTegic03142313312D

 30 31  0  0  0  0            999 V2000
    3.9641    0.8660    0.0000 C   0  0
    3.4641    0.0000    0.0000 C   0  0  3  0  0  0
    2.9641   -0.8660    0.0000 O   0  0
    2.5981    0.5000    0.0000 C   0  0
    1.7320    0.0000    0.0000 O   0  0
    0.8660    0.5000    0.0000 C   0  0
    0.8660    1.5000    0.0000 C   0  0
    0.0000    2.0000    0.0000 C   0  0
   -0.8660    1.5000    0.0000 C   0  0
   -0.8660    0.5000    0.0000 C   0  0
    0.0000    0.0000    0.0000 C   0  0
    0.0000   -1.0000    0.0000 C   0  0
    1.0000   -1.0000    0.0000 F   0  0
    0.0000   -2.0000    0.0000 F   0  0
   -1.0000   -1.0000    0.0000 F   0  0
    4.3301   -0.5000    0.0000 C   0  0
    4.3301   -1.5000    0.0000 O   0  0
    5.1961    0.0000    0.0000 N   0  0
    6.0622   -0.5000    0.0000 C   0  0
    6.9282    0.0000    0.0000 C   0  0
    7.7942   -0.4999    0.0000 C   0  0
    7.7942   -1.4999    0.0000 C   0  0
    6.9282   -1.9999    0.0000 C   0  0
    6.9282   -2.9999    0.0000 S   0  0
    7.7942   -2.4999    0.0000 F   0  0
    7.7942   -3.4999    0.0000 F   0  0
    6.9282   -3.9999    0.0000 F   0  0
    6.0622   -3.4999    0.0000 F   0  0
    6.0622   -2.4999    0.0000 F   0  0
    6.0622   -1.4999    0.0000 C   0  0
  2  1  1  4
  2  3  1  0
  2  4  1  0
  4  5  1  0
  5  6  1  0
  6  7  2  0
  7  8  1  0
  8  9  2  0
  9 10  1  0
 10 11  2  0
 11  6  1  0
 11 12  1  0
 12 13  1  0
 12 14  1  0
 12 15  1  0
  2 16  1  0
 16 17  2  0
 16 18  1  0
 18 19  1  0
 19 20  2  0
 20 21  1  0
 21 22  2  0
 22 23  1  0
 23 24  1  0
 24 25  1  0
 24 26  1  0
 24 27  1  0
 24 28  1  0
 24 29  1  0
 23 30  2  0
 30 19  1  0
M  END
> <assay_chembl_id>
CHEMBL4367683

> <assay_description>
Antiproliferative activity against human 22Rv1 cells assessed as reduction in cell growth incubated for 96 hrs by propidium iodide based 2D monolayer assay

> <document_journal>
Eur J Med Chem

> <molecule_chembl_id>
CHEMBL4552358

> <standard_value>
34900

> <IC50_uM>
34.9

> <Activity>
No

> <Canonical_Smiles>
CC(O)(COc1ccccc1C(F)(F)F)C(=O)Nc1cccc(S(F)(F)(F)(F)F)c1

$$$$

  SciTegic03142313312D

 31 32  0  0  0  0            999 V2000
    3.9641    0.8660    0.0000 C   0  0
    3.4641    0.0000    0.0000 C   0  0  3  0  0  0
    2.9641   -0.8660    0.0000 O   0  0
    2.5981    0.5000    0.0000 C   0  0
    1.7320    0.0000    0.0000 O   0  0
    0.8660    0.5000    0.0000 C   0  0
    0.8660    1.5000    0.0000 C   0  0
    0.0000    2.0000    0.0000 C   0  0
   -0.8660    1.5000    0.0000 C   0  0
   -0.8660    0.5000    0.0000 C   0  0
    0.0000    0.0000    0.0000 C   0  0
    0.0000   -1.0000    0.0000 O   0  0
   -0.8660   -1.5000    0.0000 C   0  0
   -0.3660   -2.3660    0.0000 F   0  0
   -1.7321   -2.0000    0.0000 F   0  0
   -1.3660   -0.6340    0.0000 F   0  0
    4.3301   -0.5000    0.0000 C   0  0
    4.3301   -1.5000    0.0000 O   0  0
    5.1961    0.0000    0.0000 N   0  0
    6.0622   -0.5000    0.0000 C   0  0
    6.9282    0.0000    0.0000 C   0  0
    7.7942   -0.4999    0.0000 C   0  0
    7.7942   -1.4999    0.0000 C   0  0
    6.9282   -1.9999    0.0000 C   0  0
    6.9282   -2.9999    0.0000 S   0  0
    7.7942   -2.4999    0.0000 F   0  0
    7.7942   -3.4999    0.0000 F   0  0
    6.9282   -3.9999    0.0000 F   0  0
    6.0622   -3.4999    0.0000 F   0  0
    6.0622   -2.4999    0.0000 F   0  0
    6.0622   -1.4999    0.0000 C   0  0
  2  1  1  4
  2  3  1  0
  2  4  1  0
  4  5  1  0
  5  6  1  0
  6  7  2  0
  7  8  1  0
  8  9  2  0
  9 10  1  0
 10 11  2  0
 11  6  1  0
 11 12  1  0
 12 13  1  0
 13 14  1  0
 13 15  1  0
 13 16  1  0
  2 17  1  0
 17 18  2  0
 17 19  1  0
 19 20  1  0
 20 21  2  0
 21 22  1  0
 22 23  2  0
 23 24  1  0
 24 25  1  0
 25 26  1  0
 25 27  1  0
 25 28  1  0
 25 29  1  0
 25 30  1  0
 24 31  2  0
 31 20  1  0
M  END
> <assay_chembl_id>
CHEMBL4367683

> <assay_description>
Antiproliferative activity against human 22Rv1 cells assessed as reduction in cell growth incubated for 96 hrs by propidium iodide based 2D monolayer assay

> <document_journal>
Eur J Med Chem

> <molecule_chembl_id>
CHEMBL4583385

> <standard_value>
30000

> <IC50_uM>
30

> <Activity>
No

> <Canonical_Smiles>
CC(O)(COc1ccccc1OC(F)(F)F)C(=O)Nc1cccc(S(F)(F)(F)(F)F)c1

$$$$

  SciTegic03142313312D

 28 29  0  0  0  0            999 V2000
   -2.0981   -2.3660    0.0000 C   0  0
   -2.0981   -3.3660    0.0000 C   0  0  3  0  0  0
   -2.0981   -4.3660    0.0000 O   0  0
   -1.0981   -3.3660    0.0000 C   0  0
   -0.5981   -2.5000    0.0000 O   0  0
    0.4019   -2.5000    0.0000 C   0  0
    0.9019   -1.6340    0.0000 C   0  0
    1.9019   -1.6340    0.0000 C   0  0
    2.4019   -2.5000    0.0000 C   0  0
    3.4019   -2.5000    0.0000 C   0  0
    4.4019   -2.5000    0.0000 N   0  0
    1.9019   -3.3660    0.0000 C   0  0
    0.9019   -3.3660    0.0000 C   0  0
   -3.0981   -3.3660    0.0000 C   0  0
   -3.5981   -2.5000    0.0000 O   0  0
   -3.5981   -4.2320    0.0000 N   0  0
   -4.5981   -4.2320    0.0000 C   0  0
   -5.0981   -5.0981    0.0000 C   0  0
   -6.0981   -5.0981    0.0000 C   0  0
   -6.5980   -4.2321    0.0000 C   0  0
   -6.0980   -3.3660    0.0000 C   0  0
   -6.5980   -2.5000    0.0000 S   0  0
   -7.0980   -3.3660    0.0000 F   0  0
   -7.5980   -2.5000    0.0000 F   0  0
   -7.0980   -1.6340    0.0000 F   0  0
   -6.0980   -1.6340    0.0000 F   0  0
   -5.5980   -2.5000    0.0000 F   0  0
   -5.0981   -3.3660    0.0000 C   0  0
  2  1  1  4
  2  3  1  0
  2  4  1  0
  4  5  1  0
  5  6  1  0
  6  7  2  0
  7  8  1  0
  8  9  2  0
  9 10  1  0
 10 11  3  0
  9 12  1  0
 12 13  2  0
 13  6  1  0
  2 14  1  0
 14 15  2  0
 14 16  1  0
 16 17  1  0
 17 18  2  0
 18 19  1  0
 19 20  2  0
 20 21  1  0
 21 22  1  0
 22 23  1  0
 22 24  1  0
 22 25  1  0
 22 26  1  0
 22 27  1  0
 21 28  2  0
 28 17  1  0
M  END
> <assay_chembl_id>
CHEMBL4367683

> <assay_description>
Antiproliferative activity against human 22Rv1 cells assessed as reduction in cell growth incubated for 96 hrs by propidium iodide based 2D monolayer assay

> <document_journal>
Eur J Med Chem

> <molecule_chembl_id>
CHEMBL4436003

> <standard_value>
32500

> <IC50_uM>
32.5

> <Activity>
No

> <Canonical_Smiles>
CC(O)(COc1ccc(C#N)cc1)C(=O)Nc1cccc(S(F)(F)(F)(F)F)c1

$$$$

  SciTegic03142313312D

 29 30  0  0  0  0            999 V2000
   -2.0981   -2.3660    0.0000 C   0  0
   -2.0981   -3.3660    0.0000 C   0  0  3  0  0  0
   -2.0981   -4.3660    0.0000 O   0  0
   -1.0981   -3.3660    0.0000 C   0  0
   -0.5981   -2.5000    0.0000 O   0  0
    0.4019   -2.5000    0.0000 C   0  0
    0.9019   -1.6340    0.0000 C   0  0
    1.9019   -1.6340    0.0000 C   0  0
    2.4019   -2.5000    0.0000 C   0  0
    3.4019   -2.5000    0.0000 C   0  0
    4.4019   -2.5000    0.0000 N   0  0
    1.9019   -3.3660    0.0000 C   0  0
    2.4019   -4.2320    0.0000 F   0  0
    0.9019   -3.3660    0.0000 C   0  0
   -3.0981   -3.3660    0.0000 C   0  0
   -3.5981   -2.5000    0.0000 O   0  0
   -3.5981   -4.2320    0.0000 N   0  0
   -4.5981   -4.2320    0.0000 C   0  0
   -5.0981   -5.0981    0.0000 C   0  0
   -6.0981   -5.0981    0.0000 C   0  0
   -6.5980   -4.2321    0.0000 C   0  0
   -6.0980   -3.3660    0.0000 C   0  0
   -6.5980   -2.5000    0.0000 S   0  0
   -7.0980   -3.3660    0.0000 F   0  0
   -7.5980   -2.5000    0.0000 F   0  0
   -7.0980   -1.6340    0.0000 F   0  0
   -6.0980   -1.6340    0.0000 F   0  0
   -5.5980   -2.5000    0.0000 F   0  0
   -5.0981   -3.3660    0.0000 C   0  0
  2  1  1  4
  2  3  1  0
  2  4  1  0
  4  5  1  0
  5  6  1  0
  6  7  2  0
  7  8  1  0
  8  9  2  0
  9 10  1  0
 10 11  3  0
  9 12  1  0
 12 13  1  0
 12 14  2  0
 14  6  1  0
  2 15  1  0
 15 16  2  0
 15 17  1  0
 17 18  1  0
 18 19  2  0
 19 20  1  0
 20 21  2  0
 21 22  1  0
 22 23  1  0
 23 24  1  0
 23 25  1  0
 23 26  1  0
 23 27  1  0
 23 28  1  0
 22 29  2  0
 29 18  1  0
M  END
> <assay_chembl_id>
CHEMBL4367683

> <assay_description>
Antiproliferative activity against human 22Rv1 cells assessed as reduction in cell growth incubated for 96 hrs by propidium iodide based 2D monolayer assay

> <document_journal>
Eur J Med Chem

> <molecule_chembl_id>
CHEMBL4450371

> <standard_value>
63400

> <IC50_uM>
63.4

> <Activity>
No

> <Canonical_Smiles>
CC(O)(COc1ccc(C#N)c(F)c1)C(=O)Nc1cccc(S(F)(F)(F)(F)F)c1

$$$$

  SciTegic03142313312D

 35 36  0  0  0  0            999 V2000
   -3.9641   -0.8660    0.0000 C   0  0
   -3.4641    0.0000    0.0000 C   0  0  3  0  0  0
   -2.9641    0.8660    0.0000 O   0  0
   -2.5981   -0.5000    0.0000 C   0  0
   -1.7320    0.0000    0.0000 S   0  0
   -1.2320   -0.8660    0.0000 O   0  0
   -2.2320    0.8660    0.0000 O   0  0
   -0.8660    0.5000    0.0000 C   0  0
   -0.8660    1.5000    0.0000 C   0  0
    0.0000    2.0000    0.0000 C   0  0
    0.8660    1.5000    0.0000 C   0  0
    0.8660    0.5000    0.0000 C   0  0
    1.7320    0.0000    0.0000 S   0  0
    1.7320    1.0000    0.0000 F   0  0
    2.5981    0.5000    0.0000 F   0  0
    2.5981   -0.5000    0.0000 F   0  0
    1.7320   -1.0000    0.0000 F   0  0
    0.8660   -0.5000    0.0000 F   0  0
    0.0000    0.0000    0.0000 C   0  0
   -4.3301    0.5000    0.0000 C   0  0
   -4.3301    1.5000    0.0000 O   0  0
   -5.1961    0.0000    0.0000 N   0  0
   -6.0622    0.5000    0.0000 C   0  0
   -6.0621    1.5000    0.0000 C   0  0
   -6.9281    2.0000    0.0000 C   0  0
   -7.7941    1.5001    0.0000 C   0  0
   -8.6602    2.0001    0.0000 N   0  3
   -9.5262    1.5001    0.0000 O   0  0
   -8.6602    3.0001    0.0000 O   0  5
   -7.7942    0.5001    0.0000 C   0  0
   -6.9282    0.0000    0.0000 C   0  0
   -6.9282   -1.0000    0.0000 C   0  0
   -5.9282   -1.0000    0.0000 F   0  0
   -6.9282   -2.0000    0.0000 F   0  0
   -7.9282   -0.9999    0.0000 F   0  0
  2  1  1  4
  2  3  1  0
  2  4  1  0
  4  5  1  0
  5  6  2  0
  5  7  2  0
  5  8  1  0
  8  9  2  0
  9 10  1  0
 10 11  2  0
 11 12  1  0
 12 13  1  0
 13 14  1  0
 13 15  1  0
 13 16  1  0
 13 17  1  0
 13 18  1  0
 12 19  2  0
 19  8  1  0
  2 20  1  0
 20 21  2  0
 20 22  1  0
 22 23  1  0
 23 24  2  0
 24 25  1  0
 25 26  2  0
 26 27  1  0
 27 28  2  0
 27 29  1  0
 26 30  1  0
 30 31  2  0
 31 23  1  0
 31 32  1  0
 32 33  1  0
 32 34  1  0
 32 35  1  0
M  CHG  2  27   1  29  -1
M  END
> <assay_chembl_id>
CHEMBL4367683

> <assay_description>
Antiproliferative activity against human 22Rv1 cells assessed as reduction in cell growth incubated for 96 hrs by propidium iodide based 2D monolayer assay

> <document_journal>
Eur J Med Chem

> <molecule_chembl_id>
CHEMBL4449561

> <standard_value>
100000

> <IC50_uM>
100

> <Activity>
No

> <Canonical_Smiles>
CC(O)(CS(=O)(=O)c1cccc(S(F)(F)(F)(F)F)c1)C(=O)Nc1ccc([N+](=O)[O-])cc1C(F)(F)F

$$$$

  SciTegic03142313312D

 34 35  0  0  0  0            999 V2000
   -3.9641   -0.8660    0.0000 C   0  0
   -3.4641    0.0000    0.0000 C   0  0  3  0  0  0
   -2.9641    0.8660    0.0000 O   0  0
   -2.5981   -0.5000    0.0000 C   0  0
   -1.7320    0.0000    0.0000 S   0  0
   -1.2320   -0.8660    0.0000 O   0  0
   -2.2320    0.8660    0.0000 O   0  0
   -0.8660    0.5000    0.0000 C   0  0
   -0.8660    1.5000    0.0000 C   0  0
    0.0000    2.0000    0.0000 C   0  0
    0.8660    1.5000    0.0000 C   0  0
    0.8660    0.5000    0.0000 C   0  0
    1.7320    0.0000    0.0000 S   0  0
    1.7320    1.0000    0.0000 F   0  0
    2.5981    0.5000    0.0000 F   0  0
    2.5981   -0.5000    0.0000 F   0  0
    1.7320   -1.0000    0.0000 F   0  0
    0.8660   -0.5000    0.0000 F   0  0
    0.0000    0.0000    0.0000 C   0  0
   -4.3301    0.5000    0.0000 C   0  0
   -4.3301    1.5000    0.0000 O   0  0
   -5.1961    0.0000    0.0000 N   0  0
   -6.0622    0.5000    0.0000 C   0  0
   -6.0621    1.5000    0.0000 C   0  0
   -6.9282    2.0000    0.0000 C   0  0
   -7.7942    1.5000    0.0000 C   0  0
   -8.6602    2.0000    0.0000 S   0  0
   -8.6602    1.0000    0.0000 F   0  0
   -9.5262    1.5000    0.0000 F   0  0
   -9.5262    2.5000    0.0000 F   0  0
   -8.6602    3.0000    0.0000 F   0  0
   -7.7942    2.5000    0.0000 F   0  0
   -7.7942    0.5000    0.0000 C   0  0
   -6.9282    0.0000    0.0000 C   0  0
  2  1  1  4
  2  3  1  0
  2  4  1  0
  4  5  1  0
  5  6  2  0
  5  7  2  0
  5  8  1  0
  8  9  2  0
  9 10  1  0
 10 11  2  0
 11 12  1  0
 12 13  1  0
 13 14  1  0
 13 15  1  0
 13 16  1  0
 13 17  1  0
 13 18  1  0
 12 19  2  0
 19  8  1  0
  2 20  1  0
 20 21  2  0
 20 22  1  0
 22 23  1  0
 23 24  2  0
 24 25  1  0
 25 26  2  0
 26 27  1  0
 27 28  1  0
 27 29  1  0
 27 30  1  0
 27 31  1  0
 27 32  1  0
 26 33  1  0
 33 34  2  0
 34 23  1  0
M  END
> <assay_chembl_id>
CHEMBL4367683

> <assay_description>
Antiproliferative activity against human 22Rv1 cells assessed as reduction in cell growth incubated for 96 hrs by propidium iodide based 2D monolayer assay

> <document_journal>
Eur J Med Chem

> <molecule_chembl_id>
CHEMBL4457017

> <standard_value>
39900

> <IC50_uM>
39.9

> <Activity>
No

> <Canonical_Smiles>
CC(O)(CS(=O)(=O)c1cccc(S(F)(F)(F)(F)F)c1)C(=O)Nc1ccc(S(F)(F)(F)(F)F)cc1

$$$$

  SciTegic03142313312D

 29 30  0  0  0  0            999 V2000
   -3.9641   -0.8660    0.0000 C   0  0
   -3.4641    0.0000    0.0000 C   0  0  3  0  0  0
   -2.9641    0.8660    0.0000 O   0  0
   -2.5981   -0.5000    0.0000 C   0  0
   -1.7320    0.0000    0.0000 S   0  0
   -1.2320   -0.8660    0.0000 O   0  0
   -2.2320    0.8660    0.0000 O   0  0
   -0.8660    0.5000    0.0000 C   0  0
   -0.8660    1.5000    0.0000 C   0  0
    0.0000    2.0000    0.0000 C   0  0
    0.8660    1.5000    0.0000 C   0  0
    1.7320    2.0000    0.0000 F   0  0
    0.8660    0.5000    0.0000 C   0  0
    0.0000    0.0000    0.0000 C   0  0
   -4.3301    0.5000    0.0000 C   0  0
   -4.3301    1.5000    0.0000 O   0  0
   -5.1961    0.0000    0.0000 N   0  0
   -6.0622    0.5000    0.0000 C   0  0
   -6.0621    1.5000    0.0000 C   0  0
   -6.9282    2.0000    0.0000 C   0  0
   -7.7942    1.5000    0.0000 C   0  0
   -8.6602    2.0000    0.0000 S   0  0
   -8.6602    1.0000    0.0000 F   0  0
   -9.5262    1.5000    0.0000 F   0  0
   -9.5262    2.5000    0.0000 F   0  0
   -8.6602    3.0000    0.0000 F   0  0
   -7.7942    2.5000    0.0000 F   0  0
   -7.7942    0.5000    0.0000 C   0  0
   -6.9282    0.0000    0.0000 C   0  0
  2  1  1  4
  2  3  1  0
  2  4  1  0
  4  5  1  0
  5  6  2  0
  5  7  2  0
  5  8  1  0
  8  9  2  0
  9 10  1  0
 10 11  2  0
 11 12  1  0
 11 13  1  0
 13 14  2  0
 14  8  1  0
  2 15  1  0
 15 16  2  0
 15 17  1  0
 17 18  1  0
 18 19  2  0
 19 20  1  0
 20 21  2  0
 21 22  1  0
 22 23  1  0
 22 24  1  0
 22 25  1  0
 22 26  1  0
 22 27  1  0
 21 28  1  0
 28 29  2  0
 29 18  1  0
M  END
> <assay_chembl_id>
CHEMBL4367683

> <assay_description>
Antiproliferative activity against human 22Rv1 cells assessed as reduction in cell growth incubated for 96 hrs by propidium iodide based 2D monolayer assay

> <document_journal>
Eur J Med Chem

> <molecule_chembl_id>
CHEMBL4582391

> <standard_value>
20600

> <IC50_uM>
20.6

> <Activity>
No

> <Canonical_Smiles>
CC(O)(CS(=O)(=O)c1ccc(F)cc1)C(=O)Nc1ccc(S(F)(F)(F)(F)F)cc1

$$$$

  SciTegic03142313312D

 32 33  0  0  0  0            999 V2000
    2.0981    4.3660    0.0000 C   0  0
    2.5981    3.5000    0.0000 C   0  0  3  0  0  0
    3.0981    2.6340    0.0000 O   0  0
    3.4641    4.0000    0.0000 C   0  0
    4.3301    3.5000    0.0000 S   0  0
    4.8301    4.3660    0.0000 O   0  0
    3.8301    2.6340    0.0000 O   0  0
    5.1961    3.0000    0.0000 C   0  0
    6.0622    3.5000    0.0000 C   0  0
    6.9282    3.0000    0.0000 C   0  0
    6.9282    2.0000    0.0000 C   0  0
    7.7942    1.5000    0.0000 C   0  0
    8.2942    2.3660    0.0000 F   0  0
    8.6602    1.0000    0.0000 F   0  0
    7.2942    0.6340    0.0000 F   0  0
    6.0621    1.5000    0.0000 C   0  0
    5.1961    2.0000    0.0000 C   0  0
    1.7320    3.0000    0.0000 C   0  0
    0.8660    3.5000    0.0000 O   0  0
    1.7320    2.0000    0.0000 N   0  0
    0.8660    1.5000    0.0000 C   0  0
    0.0000    2.0000    0.0000 C   0  0
   -0.8660    1.5000    0.0000 C   0  0
   -0.8660    0.5000    0.0000 C   0  0
   -1.7320    0.0000    0.0000 S   0  0
   -0.8660   -0.5000    0.0000 F   0  0
   -1.7320   -1.0000    0.0000 F   0  0
   -2.5981   -0.5000    0.0000 F   0  0
   -2.5981    0.5000    0.0000 F   0  0
   -1.7320    1.0000    0.0000 F   0  0
    0.0000    0.0000    0.0000 C   0  0
    0.8660    0.5000    0.0000 C   0  0
  2  1  1  4
  2  3  1  0
  2  4  1  0
  4  5  1  0
  5  6  2  0
  5  7  2  0
  5  8  1  0
  8  9  2  0
  9 10  1  0
 10 11  2  0
 11 12  1  0
 12 13  1  0
 12 14  1  0
 12 15  1  0
 11 16  1  0
 16 17  2  0
 17  8  1  0
  2 18  1  0
 18 19  2  0
 18 20  1  0
 20 21  1  0
 21 22  2  0
 22 23  1  0
 23 24  2  0
 24 25  1  0
 25 26  1  0
 25 27  1  0
 25 28  1  0
 25 29  1  0
 25 30  1  0
 24 31  1  0
 31 32  2  0
 32 21  1  0
M  END
> <assay_chembl_id>
CHEMBL4367683

> <assay_description>
Antiproliferative activity against human 22Rv1 cells assessed as reduction in cell growth incubated for 96 hrs by propidium iodide based 2D monolayer assay

> <document_journal>
Eur J Med Chem

> <molecule_chembl_id>
CHEMBL4463808

> <standard_value>
28900

> <IC50_uM>
28.9

> <Activity>
No

> <Canonical_Smiles>
CC(O)(CS(=O)(=O)c1ccc(C(F)(F)F)cc1)C(=O)Nc1ccc(S(F)(F)(F)(F)F)cc1

$$$$

  SciTegic03142313312D

 32 33  0  0  0  0            999 V2000
    2.9641    0.8660    0.0000 C   0  0
    3.4641    0.0000    0.0000 C   0  0  3  0  0  0
    3.9641   -0.8660    0.0000 O   0  0
    2.5981   -0.5000    0.0000 C   0  0
    1.7320    0.0000    0.0000 S   0  0
    2.2320    0.8660    0.0000 O   0  0
    1.2320   -0.8660    0.0000 O   0  0
    0.8660    0.5000    0.0000 C   0  0
    0.8660    1.5000    0.0000 C   0  0
    0.0000    2.0000    0.0000 C   0  0
   -0.8660    1.5000    0.0000 C   0  0
   -0.8660    0.5000    0.0000 C   0  0
   -1.7320    0.0000    0.0000 C   0  0
   -1.2320   -0.8660    0.0000 F   0  0
   -2.5981   -0.5000    0.0000 F   0  0
   -2.2320    0.8660    0.0000 F   0  0
    0.0000    0.0000    0.0000 C   0  0
    4.3301    0.5000    0.0000 C   0  0
    4.3301    1.5000    0.0000 O   0  0
    5.1961    0.0000    0.0000 N   0  0
    6.0622    0.5000    0.0000 C   0  0
    6.9282    0.0000    0.0000 C   0  0
    7.7942    0.5001    0.0000 C   0  0
    7.7941    1.5001    0.0000 C   0  0
    8.6602    2.0001    0.0000 S   0  0
    7.7941    2.5001    0.0000 F   0  0
    8.6602    3.0001    0.0000 F   0  0
    9.5262    2.5001    0.0000 F   0  0
    9.5262    1.5001    0.0000 F   0  0
    8.6602    1.0001    0.0000 F   0  0
    6.9281    2.0000    0.0000 C   0  0
    6.0621    1.5000    0.0000 C   0  0
  2  1  1  4
  2  3  1  0
  2  4  1  0
  4  5  1  0
  5  6  2  0
  5  7  2  0
  5  8  1  0
  8  9  2  0
  9 10  1  0
 10 11  2  0
 11 12  1  0
 12 13  1  0
 13 14  1  0
 13 15  1  0
 13 16  1  0
 12 17  2  0
 17  8  1  0
  2 18  1  0
 18 19  2  0
 18 20  1  0
 20 21  1  0
 21 22  2  0
 22 23  1  0
 23 24  2  0
 24 25  1  0
 25 26  1  0
 25 27  1  0
 25 28  1  0
 25 29  1  0
 25 30  1  0
 24 31  1  0
 31 32  2  0
 32 21  1  0
M  END
> <assay_chembl_id>
CHEMBL4367683

> <assay_description>
Antiproliferative activity against human 22Rv1 cells assessed as reduction in cell growth incubated for 96 hrs by propidium iodide based 2D monolayer assay

> <document_journal>
Eur J Med Chem

> <molecule_chembl_id>
CHEMBL4452812

> <standard_value>
23800

> <IC50_uM>
23.8

> <Activity>
No

> <Canonical_Smiles>
CC(O)(CS(=O)(=O)c1cccc(C(F)(F)F)c1)C(=O)Nc1ccc(S(F)(F)(F)(F)F)cc1

$$$$

  SciTegic03142313312D

 33 34  0  0  0  0            999 V2000
    2.0981    4.3660    0.0000 C   0  0
    2.5981    3.5000    0.0000 C   0  0  3  0  0  0
    3.0981    2.6340    0.0000 O   0  0
    3.4641    4.0000    0.0000 C   0  0
    4.3301    3.5000    0.0000 S   0  0
    4.8301    4.3660    0.0000 O   0  0
    3.8301    2.6340    0.0000 O   0  0
    5.1961    3.0000    0.0000 C   0  0
    6.0622    3.5000    0.0000 C   0  0
    6.9282    3.0000    0.0000 C   0  0
    6.9282    2.0000    0.0000 C   0  0
    7.7942    1.5000    0.0000 O   0  0
    7.7942    0.5000    0.0000 C   0  0
    8.7942    0.5000    0.0000 F   0  0
    7.7942   -0.5000    0.0000 F   0  0
    6.7942    0.5000    0.0000 F   0  0
    6.0621    1.5000    0.0000 C   0  0
    5.1961    2.0000    0.0000 C   0  0
    1.7320    3.0000    0.0000 C   0  0
    0.8660    3.5000    0.0000 O   0  0
    1.7320    2.0000    0.0000 N   0  0
    0.8660    1.5000    0.0000 C   0  0
    0.0000    2.0000    0.0000 C   0  0
   -0.8660    1.5000    0.0000 C   0  0
   -0.8660    0.5000    0.0000 C   0  0
   -1.7320    0.0000    0.0000 S   0  0
   -0.8660   -0.5000    0.0000 F   0  0
   -1.7320   -1.0000    0.0000 F   0  0
   -2.5981   -0.5000    0.0000 F   0  0
   -2.5981    0.5000    0.0000 F   0  0
   -1.7320    1.0000    0.0000 F   0  0
    0.0000    0.0000    0.0000 C   0  0
    0.8660    0.5000    0.0000 C   0  0
  2  1  1  4
  2  3  1  0
  2  4  1  0
  4  5  1  0
  5  6  2  0
  5  7  2  0
  5  8  1  0
  8  9  2  0
  9 10  1  0
 10 11  2  0
 11 12  1  0
 12 13  1  0
 13 14  1  0
 13 15  1  0
 13 16  1  0
 11 17  1  0
 17 18  2  0
 18  8  1  0
  2 19  1  0
 19 20  2  0
 19 21  1  0
 21 22  1  0
 22 23  2  0
 23 24  1  0
 24 25  2  0
 25 26  1  0
 26 27  1  0
 26 28  1  0
 26 29  1  0
 26 30  1  0
 26 31  1  0
 25 32  1  0
 32 33  2  0
 33 22  1  0
M  END
> <assay_chembl_id>
CHEMBL4367683

> <assay_description>
Antiproliferative activity against human 22Rv1 cells assessed as reduction in cell growth incubated for 96 hrs by propidium iodide based 2D monolayer assay

> <document_journal>
Eur J Med Chem

> <molecule_chembl_id>
CHEMBL4538927

> <standard_value>
51900

> <IC50_uM>
51.9

> <Activity>
No

> <Canonical_Smiles>
CC(O)(CS(=O)(=O)c1ccc(OC(F)(F)F)cc1)C(=O)Nc1ccc(S(F)(F)(F)(F)F)cc1

$$$$

  SciTegic03142313312D

 33 34  0  0  0  0            999 V2000
    2.9641    0.8660    0.0000 C   0  0
    3.4641    0.0000    0.0000 C   0  0  3  0  0  0
    3.9641   -0.8660    0.0000 O   0  0
    2.5981   -0.5000    0.0000 C   0  0
    1.7320    0.0000    0.0000 S   0  0
    2.2320    0.8660    0.0000 O   0  0
    1.2320   -0.8660    0.0000 O   0  0
    0.8660    0.5000    0.0000 C   0  0
    0.8660    1.5000    0.0000 C   0  0
    0.0000    2.0000    0.0000 C   0  0
   -0.8660    1.5000    0.0000 C   0  0
   -0.8660    0.5000    0.0000 C   0  0
   -1.7320    0.0000    0.0000 O   0  0
   -1.7320   -1.0000    0.0000 C   0  0
   -0.7320   -1.0000    0.0000 F   0  0
   -1.7320   -2.0000    0.0000 F   0  0
   -2.7320   -1.0000    0.0000 F   0  0
    0.0000    0.0000    0.0000 C   0  0
    4.3301    0.5000    0.0000 C   0  0
    4.3301    1.5000    0.0000 O   0  0
    5.1961    0.0000    0.0000 N   0  0
    6.0622    0.5000    0.0000 C   0  0
    6.9282    0.0000    0.0000 C   0  0
    7.7942    0.5001    0.0000 C   0  0
    7.7941    1.5001    0.0000 C   0  0
    8.6602    2.0001    0.0000 S   0  0
    7.7941    2.5001    0.0000 F   0  0
    8.6602    3.0001    0.0000 F   0  0
    9.5262    2.5001    0.0000 F   0  0
    9.5262    1.5001    0.0000 F   0  0
    8.6602    1.0001    0.0000 F   0  0
    6.9281    2.0000    0.0000 C   0  0
    6.0621    1.5000    0.0000 C   0  0
  2  1  1  4
  2  3  1  0
  2  4  1  0
  4  5  1  0
  5  6  2  0
  5  7  2  0
  5  8  1  0
  8  9  2  0
  9 10  1  0
 10 11  2  0
 11 12  1  0
 12 13  1  0
 13 14  1  0
 14 15  1  0
 14 16  1  0
 14 17  1  0
 12 18  2  0
 18  8  1  0
  2 19  1  0
 19 20  2  0
 19 21  1  0
 21 22  1  0
 22 23  2  0
 23 24  1  0
 24 25  2  0
 25 26  1  0
 26 27  1  0
 26 28  1  0
 26 29  1  0
 26 30  1  0
 26 31  1  0
 25 32  1  0
 32 33  2  0
 33 22  1  0
M  END
> <assay_chembl_id>
CHEMBL4367683

> <assay_description>
Antiproliferative activity against human 22Rv1 cells assessed as reduction in cell growth incubated for 96 hrs by propidium iodide based 2D monolayer assay

> <document_journal>
Eur J Med Chem

> <molecule_chembl_id>
CHEMBL4573902

> <standard_value>
22400

> <IC50_uM>
22.4

> <Activity>
No

> <Canonical_Smiles>
CC(O)(CS(=O)(=O)c1cccc(OC(F)(F)F)c1)C(=O)Nc1ccc(S(F)(F)(F)(F)F)cc1

$$$$

  SciTegic03142313312D

 29 30  0  0  0  0            999 V2000
   -2.0981   -2.3660    0.0000 C   0  0
   -2.5981   -1.5000    0.0000 C   0  0  3  0  0  0
   -3.0981   -0.6340    0.0000 O   0  0
   -3.4641   -2.0000    0.0000 C   0  0
   -4.3301   -1.5000    0.0000 S   0  0
   -4.8301   -2.3660    0.0000 O   0  0
   -3.8301   -0.6340    0.0000 O   0  0
   -5.1961   -1.0000    0.0000 C   0  0
   -6.0622   -1.5000    0.0000 C   0  0
   -6.9282   -1.0000    0.0000 C   0  0
   -6.9282    0.0000    0.0000 C   0  0
   -7.7942    0.5000    0.0000 F   0  0
   -6.0621    0.5000    0.0000 C   0  0
   -5.1961    0.0000    0.0000 C   0  0
   -1.7320   -1.0000    0.0000 C   0  0
   -0.8660   -1.5000    0.0000 O   0  0
   -1.7320    0.0000    0.0000 N   0  0
   -0.8660    0.5000    0.0000 C   0  0
   -0.8660    1.5000    0.0000 C   0  0
    0.0000    2.0000    0.0000 C   0  0
    0.8660    1.5000    0.0000 C   0  0
    0.8660    0.5000    0.0000 C   0  0
    1.7320    0.0000    0.0000 S   0  0
    1.7320    1.0000    0.0000 F   0  0
    2.5981    0.5000    0.0000 F   0  0
    2.5981   -0.5000    0.0000 F   0  0
    1.7320   -1.0000    0.0000 F   0  0
    0.8660   -0.5000    0.0000 F   0  0
    0.0000    0.0000    0.0000 C   0  0
  2  1  1  4
  2  3  1  0
  2  4  1  0
  4  5  1  0
  5  6  2  0
  5  7  2  0
  5  8  1  0
  8  9  2  0
  9 10  1  0
 10 11  2  0
 11 12  1  0
 11 13  1  0
 13 14  2  0
 14  8  1  0
  2 15  1  0
 15 16  2  0
 15 17  1  0
 17 18  1  0
 18 19  2  0
 19 20  1  0
 20 21  2  0
 21 22  1  0
 22 23  1  0
 23 24  1  0
 23 25  1  0
 23 26  1  0
 23 27  1  0
 23 28  1  0
 22 29  2  0
 29 18  1  0
M  END
> <assay_chembl_id>
CHEMBL4367683

> <assay_description>
Antiproliferative activity against human 22Rv1 cells assessed as reduction in cell growth incubated for 96 hrs by propidium iodide based 2D monolayer assay

> <document_journal>
Eur J Med Chem

> <molecule_chembl_id>
CHEMBL4442203

> <standard_value>
38900

> <IC50_uM>
38.9

> <Activity>
No

> <Canonical_Smiles>
CC(O)(CS(=O)(=O)c1ccc(F)cc1)C(=O)Nc1cccc(S(F)(F)(F)(F)F)c1

$$$$

  SciTegic03142313312D

 32 33  0  0  0  0            999 V2000
    2.9641    0.8660    0.0000 C   0  0
    3.4641    0.0000    0.0000 C   0  0  3  0  0  0
    3.9641   -0.8660    0.0000 O   0  0
    2.5981   -0.5000    0.0000 C   0  0
    1.7320    0.0000    0.0000 S   0  0
    2.2320    0.8660    0.0000 O   0  0
    1.2320   -0.8660    0.0000 O   0  0
    0.8660    0.5000    0.0000 C   0  0
    0.8660    1.5000    0.0000 C   0  0
    0.0000    2.0000    0.0000 C   0  0
   -0.8660    1.5000    0.0000 C   0  0
   -0.8660    0.5000    0.0000 C   0  0
   -1.7320    0.0000    0.0000 C   0  0
   -1.2320   -0.8660    0.0000 F   0  0
   -2.5981   -0.5000    0.0000 F   0  0
   -2.2320    0.8660    0.0000 F   0  0
    0.0000    0.0000    0.0000 C   0  0
    4.3301    0.5000    0.0000 C   0  0
    4.3301    1.5000    0.0000 O   0  0
    5.1961    0.0000    0.0000 N   0  0
    6.0622    0.5000    0.0000 C   0  0
    6.0621    1.5000    0.0000 C   0  0
    6.9281    2.0000    0.0000 C   0  0
    7.7941    1.5001    0.0000 C   0  0
    7.7942    0.5001    0.0000 C   0  0
    8.6602    0.0001    0.0000 S   0  0
    8.6602    1.0001    0.0000 F   0  0
    9.5262    0.5001    0.0000 F   0  0
    9.5262   -0.4999    0.0000 F   0  0
    8.6602   -0.9999    0.0000 F   0  0
    7.7942   -0.4999    0.0000 F   0  0
    6.9282    0.0000    0.0000 C   0  0
  2  1  1  4
  2  3  1  0
  2  4  1  0
  4  5  1  0
  5  6  2  0
  5  7  2  0
  5  8  1  0
  8  9  2  0
  9 10  1  0
 10 11  2  0
 11 12  1  0
 12 13  1  0
 13 14  1  0
 13 15  1  0
 13 16  1  0
 12 17  2  0
 17  8  1  0
  2 18  1  0
 18 19  2  0
 18 20  1  0
 20 21  1  0
 21 22  2  0
 22 23  1  0
 23 24  2  0
 24 25  1  0
 25 26  1  0
 26 27  1  0
 26 28  1  0
 26 29  1  0
 26 30  1  0
 26 31  1  0
 25 32  2  0
 32 21  1  0
M  END
> <assay_chembl_id>
CHEMBL4367683

> <assay_description>
Antiproliferative activity against human 22Rv1 cells assessed as reduction in cell growth incubated for 96 hrs by propidium iodide based 2D monolayer assay

> <document_journal>
Eur J Med Chem

> <molecule_chembl_id>
CHEMBL4518552

> <standard_value>
24600

> <IC50_uM>
24.6

> <Activity>
No

> <Canonical_Smiles>
CC(O)(CS(=O)(=O)c1cccc(C(F)(F)F)c1)C(=O)Nc1cccc(S(F)(F)(F)(F)F)c1

$$$$

  SciTegic03142313312D

 32 33  0  0  0  0            999 V2000
    1.5247   -1.7476    0.0000 C   0  0
    1.8470   -2.6942    0.0000 C   0  0  3  0  0  0
    2.3470   -3.5603    0.0000 O   0  0
    0.9810   -3.1942    0.0000 C   0  0
    0.1149   -2.6942    0.0000 S   0  0
    0.6149   -1.8282    0.0000 O   0  0
   -0.3851   -3.5603    0.0000 O   0  0
   -0.7511   -2.1942    0.0000 C   0  0
   -1.6171   -2.6942    0.0000 C   0  0
   -2.4831   -2.1942    0.0000 C   0  0
   -2.4831   -1.1942    0.0000 C   0  0
   -1.6171   -0.6943    0.0000 C   0  0
   -0.7511   -1.1943    0.0000 C   0  0
    0.1149   -0.6943    0.0000 C   0  0
   -0.3851    0.1718    0.0000 F   0  0
    0.9809   -0.1942    0.0000 F   0  0
    1.0106   -1.1389    0.0000 F   0  0
    2.7130   -2.1942    0.0000 C   0  0
    2.7130   -1.1942    0.0000 O   0  0
    3.5790   -2.6942    0.0000 N   0  0
    4.4451   -2.1942    0.0000 C   0  0
    4.4450   -1.1942    0.0000 C   0  0
    5.3110   -0.6942    0.0000 C   0  0
    6.1770   -1.1942    0.0000 C   0  0
    6.1771   -2.1942    0.0000 C   0  0
    7.0431   -2.6942    0.0000 S   0  0
    7.0431   -1.6942    0.0000 F   0  0
    7.9091   -2.1942    0.0000 F   0  0
    7.9091   -3.1942    0.0000 F   0  0
    7.0431   -3.6942    0.0000 F   0  0
    6.1771   -3.1942    0.0000 F   0  0
    5.3111   -2.6942    0.0000 C   0  0
  2  1  1  4
  2  3  1  0
  2  4  1  0
  4  5  1  0
  5  6  2  0
  5  7  2  0
  5  8  1  0
  8  9  2  0
  9 10  1  0
 10 11  2  0
 11 12  1  0
 12 13  2  0
 13  8  1  0
 13 14  1  0
 14 15  1  0
 14 16  1  0
 14 17  1  0
  2 18  1  0
 18 19  2  0
 18 20  1  0
 20 21  1  0
 21 22  2  0
 22 23  1  0
 23 24  2  0
 24 25  1  0
 25 26  1  0
 26 27  1  0
 26 28  1  0
 26 29  1  0
 26 30  1  0
 26 31  1  0
 25 32  2  0
 32 21  1  0
M  END
> <assay_chembl_id>
CHEMBL4367683

> <assay_description>
Antiproliferative activity against human 22Rv1 cells assessed as reduction in cell growth incubated for 96 hrs by propidium iodide based 2D monolayer assay

> <document_journal>
Eur J Med Chem

> <molecule_chembl_id>
CHEMBL4536461

> <standard_value>
27700

> <IC50_uM>
27.7

> <Activity>
No

> <Canonical_Smiles>
CC(O)(CS(=O)(=O)c1ccccc1C(F)(F)F)C(=O)Nc1cccc(S(F)(F)(F)(F)F)c1

$$$$

  SciTegic03142313312D

 33 34  0  0  0  0            999 V2000
   -2.0981   -2.3660    0.0000 C   0  0
   -2.5981   -1.5000    0.0000 C   0  0  3  0  0  0
   -3.0981   -0.6340    0.0000 O   0  0
   -3.4641   -2.0000    0.0000 C   0  0
   -4.3301   -1.5000    0.0000 S   0  0
   -4.8301   -2.3660    0.0000 O   0  0
   -3.8301   -0.6340    0.0000 O   0  0
   -5.1961   -1.0000    0.0000 C   0  0
   -6.0622   -1.5000    0.0000 C   0  0
   -6.9282   -1.0000    0.0000 C   0  0
   -6.9282    0.0000    0.0000 C   0  0
   -7.7942    0.5000    0.0000 O   0  0
   -7.7942    1.5000    0.0000 C   0  0
   -8.7942    1.5000    0.0000 F   0  0
   -7.7942    2.5000    0.0000 F   0  0
   -6.7942    1.5000    0.0000 F   0  0
   -6.0621    0.5000    0.0000 C   0  0
   -5.1961    0.0000    0.0000 C   0  0
   -1.7320   -1.0000    0.0000 C   0  0
   -0.8660   -1.5000    0.0000 O   0  0
   -1.7320    0.0000    0.0000 N   0  0
   -0.8660    0.5000    0.0000 C   0  0
   -0.8660    1.5000    0.0000 C   0  0
    0.0000    2.0000    0.0000 C   0  0
    0.8660    1.5000    0.0000 C   0  0
    0.8660    0.5000    0.0000 C   0  0
    1.7320    0.0000    0.0000 S   0  0
    1.7320    1.0000    0.0000 F   0  0
    2.5981    0.5000    0.0000 F   0  0
    2.5981   -0.5000    0.0000 F   0  0
    1.7320   -1.0000    0.0000 F   0  0
    0.8660   -0.5000    0.0000 F   0  0
    0.0000    0.0000    0.0000 C   0  0
  2  1  1  4
  2  3  1  0
  2  4  1  0
  4  5  1  0
  5  6  2  0
  5  7  2  0
  5  8  1  0
  8  9  2  0
  9 10  1  0
 10 11  2  0
 11 12  1  0
 12 13  1  0
 13 14  1  0
 13 15  1  0
 13 16  1  0
 11 17  1  0
 17 18  2  0
 18  8  1  0
  2 19  1  0
 19 20  2  0
 19 21  1  0
 21 22  1  0
 22 23  2  0
 23 24  1  0
 24 25  2  0
 25 26  1  0
 26 27  1  0
 27 28  1  0
 27 29  1  0
 27 30  1  0
 27 31  1  0
 27 32  1  0
 26 33  2  0
 33 22  1  0
M  END
> <assay_chembl_id>
CHEMBL4367683

> <assay_description>
Antiproliferative activity against human 22Rv1 cells assessed as reduction in cell growth incubated for 96 hrs by propidium iodide based 2D monolayer assay

> <document_journal>
Eur J Med Chem

> <molecule_chembl_id>
CHEMBL4514844

> <standard_value>
31200

> <IC50_uM>
31.2

> <Activity>
No

> <Canonical_Smiles>
CC(O)(CS(=O)(=O)c1ccc(OC(F)(F)F)cc1)C(=O)Nc1cccc(S(F)(F)(F)(F)F)c1

$$$$

  SciTegic03142313312D

 33 34  0  0  0  0            999 V2000
    2.9641    0.8660    0.0000 C   0  0
    3.4641    0.0000    0.0000 C   0  0  3  0  0  0
    3.9641   -0.8660    0.0000 O   0  0
    2.5981   -0.5000    0.0000 C   0  0
    1.7320    0.0000    0.0000 S   0  0
    2.2320    0.8660    0.0000 O   0  0
    1.2320   -0.8660    0.0000 O   0  0
    0.8660    0.5000    0.0000 C   0  0
    0.8660    1.5000    0.0000 C   0  0
    0.0000    2.0000    0.0000 C   0  0
   -0.8660    1.5000    0.0000 C   0  0
   -0.8660    0.5000    0.0000 C   0  0
   -1.7320    0.0000    0.0000 O   0  0
   -1.7320   -1.0000    0.0000 C   0  0
   -0.7320   -1.0000    0.0000 F   0  0
   -1.7320   -2.0000    0.0000 F   0  0
   -2.7320   -1.0000    0.0000 F   0  0
    0.0000    0.0000    0.0000 C   0  0
    4.3301    0.5000    0.0000 C   0  0
    4.3301    1.5000    0.0000 O   0  0
    5.1961    0.0000    0.0000 N   0  0
    6.0622    0.5000    0.0000 C   0  0
    6.0621    1.5000    0.0000 C   0  0
    6.9281    2.0000    0.0000 C   0  0
    7.7941    1.5001    0.0000 C   0  0
    7.7942    0.5001    0.0000 C   0  0
    8.6602    0.0001    0.0000 S   0  0
    8.6602    1.0001    0.0000 F   0  0
    9.5262    0.5001    0.0000 F   0  0
    9.5262   -0.4999    0.0000 F   0  0
    8.6602   -0.9999    0.0000 F   0  0
    7.7942   -0.4999    0.0000 F   0  0
    6.9282    0.0000    0.0000 C   0  0
  2  1  1  4
  2  3  1  0
  2  4  1  0
  4  5  1  0
  5  6  2  0
  5  7  2  0
  5  8  1  0
  8  9  2  0
  9 10  1  0
 10 11  2  0
 11 12  1  0
 12 13  1  0
 13 14  1  0
 14 15  1  0
 14 16  1  0
 14 17  1  0
 12 18  2  0
 18  8  1  0
  2 19  1  0
 19 20  2  0
 19 21  1  0
 21 22  1  0
 22 23  2  0
 23 24  1  0
 24 25  2  0
 25 26  1  0
 26 27  1  0
 27 28  1  0
 27 29  1  0
 27 30  1  0
 27 31  1  0
 27 32  1  0
 26 33  2  0
 33 22  1  0
M  END
> <assay_chembl_id>
CHEMBL4367683

> <assay_description>
Antiproliferative activity against human 22Rv1 cells assessed as reduction in cell growth incubated for 96 hrs by propidium iodide based 2D monolayer assay

> <document_journal>
Eur J Med Chem

> <molecule_chembl_id>
CHEMBL4588894

> <standard_value>
20100

> <IC50_uM>
20.1

> <Activity>
No

> <Canonical_Smiles>
CC(O)(CS(=O)(=O)c1cccc(OC(F)(F)F)c1)C(=O)Nc1cccc(S(F)(F)(F)(F)F)c1

$$$$

  SciTegic03142313312D

 34 36  0  0  0  0            999 V2000
    3.4546    1.0055    0.0000 C   0  0
    3.8614    0.0920    0.0000 C   0  0
    4.7274    0.5920    0.0000 C   0  0
    2.9103   -0.2171    0.0000 C   0  0
    2.1012    0.3706    0.0000 O   0  0
    2.9104   -1.2170    0.0000 N   0  0
    2.1014   -1.8048    0.0000 C   0  0
    2.2059   -2.7993    0.0000 C   0  0
    1.3969   -3.3871    0.0000 C   0  0
    0.4833   -2.9804    0.0000 C   0  0
   -0.3257   -3.5681    0.0000 N   0  3
   -0.2211   -4.5627    0.0000 O   0  0
   -1.2392   -3.1614    0.0000 O   0  5
    0.3788   -1.9859    0.0000 C   0  0
   -0.5347   -1.5791    0.0000 C   0  0
   -0.9415   -2.4927    0.0000 F   0  0
   -1.4483   -1.1724    0.0000 F   0  0
   -0.1280   -0.6656    0.0000 F   0  0
    1.1878   -1.3981    0.0000 C   0  0
    3.8613   -1.5261    0.0000 C   0  0
    4.1703   -2.4771    0.0000 S   0  0
    4.4492   -0.7170    0.0000 N   0  0
    5.4492   -0.7170    0.0000 C   0  0
    5.9491   -1.5831    0.0000 C   0  0
    6.9491   -1.5830    0.0000 C   0  0
    7.4491   -0.7170    0.0000 C   0  0
    8.4491   -0.7170    0.0000 S   0  0
    7.9491    0.1490    0.0000 F   0  0
    8.9491    0.1490    0.0000 F   0  0
    9.4491   -0.7170    0.0000 F   0  0
    8.9491   -1.5831    0.0000 F   0  0
    7.9491   -1.5830    0.0000 F   0  0
    6.9491    0.1490    0.0000 C   0  0
    5.9492    0.1490    0.0000 C   0  0
  1  2  1  0
  2  3  1  0
  2  4  1  0
  4  5  2  0
  4  6  1  0
  6  7  1  0
  7  8  2  0
  8  9  1  0
  9 10  2  0
 10 11  1  0
 11 12  2  0
 11 13  1  0
 10 14  1  0
 14 15  1  0
 15 16  1  0
 15 17  1  0
 15 18  1  0
 14 19  2  0
 19  7  1  0
  6 20  1  0
 20 21  2  0
 20 22  1  0
 22  2  1  0
 22 23  1  0
 23 24  2  0
 24 25  1  0
 25 26  2  0
 26 27  1  0
 27 28  1  0
 27 29  1  0
 27 30  1  0
 27 31  1  0
 27 32  1  0
 26 33  1  0
 33 34  2  0
 34 23  1  0
M  CHG  2  11   1  13  -1
M  END
> <assay_chembl_id>
CHEMBL4367683

> <assay_description>
Antiproliferative activity against human 22Rv1 cells assessed as reduction in cell growth incubated for 96 hrs by propidium iodide based 2D monolayer assay

> <document_journal>
Eur J Med Chem

> <molecule_chembl_id>
CHEMBL4456578

> <standard_value>
100000

> <IC50_uM>
100

> <Activity>
No

> <Canonical_Smiles>
CC1(C)C(=O)N(c2ccc([N+](=O)[O-])c(C(F)(F)F)c2)C(=S)N1c1ccc(S(F)(F)(F)(F)F)cc1

$$$$

  SciTegic03142313312D

 34 36  0  0  0  0            999 V2000
   -3.4546    0.9945    0.0000 C   0  0
   -2.6456    0.4067    0.0000 C   0  0
   -2.1456    1.2728    0.0000 C   0  0
   -3.3147   -0.3365    0.0000 C   0  0
   -4.3092   -0.2320    0.0000 O   0  0
   -2.8147   -1.2024    0.0000 N   0  0
   -3.2214   -2.1159    0.0000 C   0  0
   -2.6336   -2.9249    0.0000 C   0  0
   -3.0404   -3.8385    0.0000 C   0  0
   -4.0349   -3.9430    0.0000 C   0  0
   -4.4416   -4.8565    0.0000 N   0  3
   -3.8538   -5.6656    0.0000 O   0  0
   -5.4361   -4.9611    0.0000 O   0  5
   -4.6227   -3.1340    0.0000 C   0  0
   -5.6172   -3.2385    0.0000 C   0  0
   -5.5127   -4.2331    0.0000 F   0  0
   -6.6117   -3.3431    0.0000 F   0  0
   -5.7217   -2.2440    0.0000 F   0  0
   -4.2159   -2.2205    0.0000 C   0  0
   -1.8366   -0.9946    0.0000 C   0  0
   -1.0935   -1.6637    0.0000 S   0  0
   -1.7320    0.0000    0.0000 N   0  0
   -0.8660    0.5000    0.0000 C   0  0
   -0.8660    1.5000    0.0000 C   0  0
    0.0000    2.0000    0.0000 C   0  0
    0.8660    1.5000    0.0000 C   0  0
    0.8660    0.5000    0.0000 C   0  0
    1.7320    0.0000    0.0000 S   0  0
    1.7320    1.0000    0.0000 F   0  0
    2.5981    0.5000    0.0000 F   0  0
    2.5981   -0.5000    0.0000 F   0  0
    1.7320   -1.0000    0.0000 F   0  0
    0.8660   -0.5000    0.0000 F   0  0
    0.0000    0.0000    0.0000 C   0  0
  1  2  1  0
  2  3  1  0
  2  4  1  0
  4  5  2  0
  4  6  1  0
  6  7  1  0
  7  8  2  0
  8  9  1  0
  9 10  2  0
 10 11  1  0
 11 12  2  0
 11 13  1  0
 10 14  1  0
 14 15  1  0
 15 16  1  0
 15 17  1  0
 15 18  1  0
 14 19  2  0
 19  7  1  0
  6 20  1  0
 20 21  2  0
 20 22  1  0
 22  2  1  0
 22 23  1  0
 23 24  2  0
 24 25  1  0
 25 26  2  0
 26 27  1  0
 27 28  1  0
 28 29  1  0
 28 30  1  0
 28 31  1  0
 28 32  1  0
 28 33  1  0
 27 34  2  0
 34 23  1  0
M  CHG  2  11   1  13  -1
M  END
> <assay_chembl_id>
CHEMBL4367683

> <assay_description>
Antiproliferative activity against human 22Rv1 cells assessed as reduction in cell growth incubated for 96 hrs by propidium iodide based 2D monolayer assay

> <document_journal>
Eur J Med Chem

> <molecule_chembl_id>
CHEMBL4441685

> <standard_value>
100000

> <IC50_uM>
100

> <Activity>
No

> <Canonical_Smiles>
CC1(C)C(=O)N(c2ccc([N+](=O)[O-])c(C(F)(F)F)c2)C(=S)N1c1cccc(S(F)(F)(F)(F)F)c1

$$$$

  SciTegic03142313312D

 33 35  0  0  0  0            999 V2000
   -3.4546    0.9945    0.0000 C   0  0
   -3.8614    1.9080    0.0000 C   0  0
   -4.7274    1.4080    0.0000 C   0  0
   -2.9103    2.2171    0.0000 C   0  0
   -2.1012    1.6294    0.0000 O   0  0
   -2.9104    3.2170    0.0000 N   0  0
   -2.1014    3.8048    0.0000 C   0  0
   -2.2059    4.7993    0.0000 C   0  0
   -1.3969    5.3871    0.0000 C   0  0
   -0.4834    4.9804    0.0000 C   0  0
    0.3256    5.5682    0.0000 C   0  0
    1.1346    6.1560    0.0000 N   0  0
   -0.3788    3.9859    0.0000 C   0  0
    0.5347    3.5792    0.0000 C   0  0
    0.9414    4.4927    0.0000 F   0  0
    1.4483    3.1725    0.0000 F   0  0
    0.1280    2.6656    0.0000 F   0  0
   -1.1878    3.3981    0.0000 C   0  0
   -3.8613    3.5261    0.0000 C   0  0
   -4.1703    4.4771    0.0000 S   0  0
   -4.4492    2.7170    0.0000 N   0  0
   -5.4492    2.7170    0.0000 C   0  0
   -5.9492    1.8510    0.0000 C   0  0
   -6.9491    1.8510    0.0000 C   0  0
   -7.4491    2.7170    0.0000 C   0  0
   -6.9491    3.5830    0.0000 C   0  0
   -7.4491    4.4491    0.0000 S   0  0
   -7.9491    3.5830    0.0000 F   0  0
   -8.4491    4.4491    0.0000 F   0  0
   -7.9491    5.3151    0.0000 F   0  0
   -6.9491    5.3151    0.0000 F   0  0
   -6.4491    4.4491    0.0000 F   0  0
   -5.9491    3.5831    0.0000 C   0  0
  1  2  1  0
  2  3  1  0
  2  4  1  0
  4  5  2  0
  4  6  1  0
  6  7  1  0
  7  8  2  0
  8  9  1  0
  9 10  2  0
 10 11  1  0
 11 12  3  0
 10 13  1  0
 13 14  1  0
 14 15  1  0
 14 16  1  0
 14 17  1  0
 13 18  2  0
 18  7  1  0
  6 19  1  0
 19 20  2  0
 19 21  1  0
 21  2  1  0
 21 22  1  0
 22 23  2  0
 23 24  1  0
 24 25  2  0
 25 26  1  0
 26 27  1  0
 27 28  1  0
 27 29  1  0
 27 30  1  0
 27 31  1  0
 27 32  1  0
 26 33  2  0
 33 22  1  0
M  END
> <assay_chembl_id>
CHEMBL4367683

> <assay_description>
Antiproliferative activity against human 22Rv1 cells assessed as reduction in cell growth incubated for 96 hrs by propidium iodide based 2D monolayer assay

> <document_journal>
Eur J Med Chem

> <molecule_chembl_id>
CHEMBL4526800

> <standard_value>
100000

> <IC50_uM>
100

> <Activity>
No

> <Canonical_Smiles>
CC1(C)C(=O)N(c2ccc(C#N)c(C(F)(F)F)c2)C(=S)N1c1cccc(S(F)(F)(F)(F)F)c1

$$$$

  SciTegic03142313312D

 33 35  0  0  0  0            999 V2000
   -3.4546    0.9945    0.0000 C   0  0
   -3.8614    1.9080    0.0000 C   0  0
   -4.7274    1.4080    0.0000 C   0  0
   -2.9103    2.2171    0.0000 C   0  0
   -2.1012    1.6294    0.0000 O   0  0
   -2.9104    3.2170    0.0000 N   0  0
   -2.1014    3.8048    0.0000 C   0  0
   -1.1878    3.3981    0.0000 C   0  0
   -0.3788    3.9859    0.0000 C   0  0
   -0.4833    4.9804    0.0000 C   0  0
    0.3257    5.5681    0.0000 C   0  0
    1.1347    6.1559    0.0000 N   0  0
   -1.3969    5.3871    0.0000 C   0  0
   -2.2059    4.7993    0.0000 C   0  0
   -3.1194    5.2061    0.0000 C   0  0
   -3.4351    4.2572    0.0000 F   0  0
   -4.0330    5.6128    0.0000 F   0  0
   -2.7127    6.1196    0.0000 F   0  0
   -3.8613    3.5261    0.0000 C   0  0
   -4.1703    4.4771    0.0000 S   0  0
   -4.4492    2.7170    0.0000 N   0  0
   -5.4492    2.7170    0.0000 C   0  0
   -5.9492    1.8510    0.0000 C   0  0
   -6.9491    1.8510    0.0000 C   0  0
   -7.4491    2.7170    0.0000 C   0  0
   -6.9491    3.5830    0.0000 C   0  0
   -7.4491    4.4491    0.0000 S   0  0
   -7.9491    3.5830    0.0000 F   0  0
   -8.4491    4.4491    0.0000 F   0  0
   -7.9491    5.3151    0.0000 F   0  0
   -6.9491    5.3151    0.0000 F   0  0
   -6.4491    4.4491    0.0000 F   0  0
   -5.9491    3.5831    0.0000 C   0  0
  1  2  1  0
  2  3  1  0
  2  4  1  0
  4  5  2  0
  4  6  1  0
  6  7  1  0
  7  8  2  0
  8  9  1  0
  9 10  2  0
 10 11  1  0
 11 12  3  0
 10 13  1  0
 13 14  2  0
  7 14  1  4
 14 15  1  0
 15 16  1  0
 15 17  1  0
 15 18  1  0
  6 19  1  0
 19 20  2  0
 19 21  1  0
 21  2  1  0
 21 22  1  0
 22 23  2  0
 23 24  1  0
 24 25  2  0
 25 26  1  0
 26 27  1  0
 27 28  1  0
 27 29  1  0
 27 30  1  0
 27 31  1  0
 27 32  1  0
 26 33  2  0
 33 22  1  0
M  END
> <assay_chembl_id>
CHEMBL4367683

> <assay_description>
Antiproliferative activity against human 22Rv1 cells assessed as reduction in cell growth incubated for 96 hrs by propidium iodide based 2D monolayer assay

> <document_journal>
Eur J Med Chem

> <molecule_chembl_id>
CHEMBL4436356

> <standard_value>
100000

> <IC50_uM>
100

> <Activity>
No

> <Canonical_Smiles>
CC1(C)C(=O)N(c2ccc(C#N)cc2C(F)(F)F)C(=S)N1c1cccc(S(F)(F)(F)(F)F)c1

$$$$

  SciTegic03142313312D

 34 36  0  0  0  0            999 V2000
    3.4546    1.0055    0.0000 C   0  0
    3.3501    0.0110    0.0000 C   0  0
    4.3501    0.0110    0.0000 C   0  0
    2.3719    0.2189    0.0000 C   0  0
    1.9651    1.1324    0.0000 O   0  0
    1.8720   -0.6471    0.0000 N   0  0
    0.8775   -0.7517    0.0000 C   0  0
    0.2897    0.0573    0.0000 C   0  0
   -0.7048   -0.0472    0.0000 C   0  0
   -1.1115   -0.9607    0.0000 C   0  0
   -2.1060   -1.0653    0.0000 N   0  3
   -2.5128   -1.9788    0.0000 O   0  0
   -2.6938   -0.2562    0.0000 O   0  5
   -0.5237   -1.7697    0.0000 C   0  0
    0.4708   -1.6652    0.0000 C   0  0
    1.0586   -2.4742    0.0000 C   0  0
    1.8064   -1.8103    0.0000 F   0  0
    1.6464   -3.2832    0.0000 F   0  0
    0.2495   -3.0620    0.0000 F   0  0
    2.5411   -1.3903    0.0000 C   0  0
    2.3331   -2.3684    0.0000 S   0  0
    3.4546   -0.9835    0.0000 N   0  0
    4.3207   -1.4835    0.0000 C   0  0
    4.3207   -2.4835    0.0000 C   0  0
    5.1867   -2.9835    0.0000 C   0  0
    6.0527   -2.4835    0.0000 C   0  0
    6.9187   -2.9835    0.0000 S   0  0
    6.9187   -1.9835    0.0000 F   0  0
    7.7847   -2.4835    0.0000 F   0  0
    7.7847   -3.4835    0.0000 F   0  0
    6.9187   -3.9835    0.0000 F   0  0
    6.0527   -3.4835    0.0000 F   0  0
    6.0527   -1.4835    0.0000 C   0  0
    5.1867   -0.9835    0.0000 C   0  0
  1  2  1  0
  2  3  1  0
  2  4  1  0
  4  5  2  0
  4  6  1  0
  6  7  1  0
  7  8  2  0
  8  9  1  0
  9 10  2  0
 10 11  1  0
 11 12  2  0
 11 13  1  0
 10 14  1  0
 14 15  2  0
  7 15  1  4
 15 16  1  0
 16 17  1  0
 16 18  1  0
 16 19  1  0
  6 20  1  0
 20 21  2  0
 20 22  1  0
 22  2  1  0
 22 23  1  0
 23 24  2  0
 24 25  1  0
 25 26  2  0
 26 27  1  0
 27 28  1  0
 27 29  1  0
 27 30  1  0
 27 31  1  0
 27 32  1  0
 26 33  1  0
 33 34  2  0
 34 23  1  0
M  CHG  2  11   1  13  -1
M  END
> <assay_chembl_id>
CHEMBL4367683

> <assay_description>
Antiproliferative activity against human 22Rv1 cells assessed as reduction in cell growth incubated for 96 hrs by propidium iodide based 2D monolayer assay

> <document_journal>
Eur J Med Chem

> <molecule_chembl_id>
CHEMBL4517068

> <standard_value>
100000

> <IC50_uM>
100

> <Activity>
No

> <Canonical_Smiles>
CC1(C)C(=O)N(c2ccc([N+](=O)[O-])cc2C(F)(F)F)C(=S)N1c1ccc(S(F)(F)(F)(F)F)cc1

$$$$

  SciTegic03142313312D

 34 36  0  0  0  0            999 V2000
   -3.4546    0.9945    0.0000 C   0  0
   -3.8614    1.9080    0.0000 C   0  0
   -4.7274    1.4080    0.0000 C   0  0
   -2.9103    2.2171    0.0000 C   0  0
   -2.1012    1.6294    0.0000 O   0  0
   -2.9104    3.2170    0.0000 N   0  0
   -2.1014    3.8048    0.0000 C   0  0
   -1.1878    3.3981    0.0000 C   0  0
   -0.3788    3.9859    0.0000 C   0  0
   -0.4833    4.9804    0.0000 C   0  0
    0.3257    5.5681    0.0000 N   0  3
    0.2211    6.5627    0.0000 O   0  0
    1.2392    5.1614    0.0000 O   0  5
   -1.3969    5.3871    0.0000 C   0  0
   -2.2059    4.7993    0.0000 C   0  0
   -3.1194    5.2061    0.0000 C   0  0
   -3.4351    4.2572    0.0000 F   0  0
   -4.0330    5.6128    0.0000 F   0  0
   -2.7127    6.1196    0.0000 F   0  0
   -3.8613    3.5261    0.0000 C   0  0
   -4.1703    4.4771    0.0000 S   0  0
   -4.4492    2.7170    0.0000 N   0  0
   -5.4492    2.7170    0.0000 C   0  0
   -5.9492    1.8510    0.0000 C   0  0
   -6.9491    1.8510    0.0000 C   0  0
   -7.4491    2.7170    0.0000 C   0  0
   -6.9491    3.5830    0.0000 C   0  0
   -7.4491    4.4491    0.0000 S   0  0
   -7.9491    3.5830    0.0000 F   0  0
   -8.4491    4.4491    0.0000 F   0  0
   -7.9491    5.3151    0.0000 F   0  0
   -6.9491    5.3151    0.0000 F   0  0
   -6.4491    4.4491    0.0000 F   0  0
   -5.9491    3.5831    0.0000 C   0  0
  1  2  1  0
  2  3  1  0
  2  4  1  0
  4  5  2  0
  4  6  1  0
  6  7  1  0
  7  8  2  0
  8  9  1  0
  9 10  2  0
 10 11  1  0
 11 12  2  0
 11 13  1  0
 10 14  1  0
 14 15  2  0
  7 15  1  4
 15 16  1  0
 16 17  1  0
 16 18  1  0
 16 19  1  0
  6 20  1  0
 20 21  2  0
 20 22  1  0
 22  2  1  0
 22 23  1  0
 23 24  2  0
 24 25  1  0
 25 26  2  0
 26 27  1  0
 27 28  1  0
 28 29  1  0
 28 30  1  0
 28 31  1  0
 28 32  1  0
 28 33  1  0
 27 34  2  0
 34 23  1  0
M  CHG  2  11   1  13  -1
M  END
> <assay_chembl_id>
CHEMBL4367683

> <assay_description>
Antiproliferative activity against human 22Rv1 cells assessed as reduction in cell growth incubated for 96 hrs by propidium iodide based 2D monolayer assay

> <document_journal>
Eur J Med Chem

> <molecule_chembl_id>
CHEMBL4586170

> <standard_value>
43900

> <IC50_uM>
43.9

> <Activity>
No

> <Canonical_Smiles>
CC1(C)C(=O)N(c2ccc([N+](=O)[O-])cc2C(F)(F)F)C(=S)N1c1cccc(S(F)(F)(F)(F)F)c1

$$$$

  SciTegic03142313312D

 31 33  0  0  0  0            999 V2000
    3.4546    1.0055    0.0000 C   0  0
    3.3501    0.0110    0.0000 C   0  0
    4.3501    0.0110    0.0000 C   0  0
    2.3719    0.2189    0.0000 C   0  0
    1.9651    1.1324    0.0000 O   0  0
    1.8720   -0.6471    0.0000 N   0  0
    0.8775   -0.7517    0.0000 C   0  0
    0.2897    0.0573    0.0000 C   0  0
   -0.7048   -0.0472    0.0000 C   0  0
   -1.1115   -0.9608    0.0000 C   0  0
   -2.1060   -1.0653    0.0000 S   0  0
   -1.5182   -1.8743    0.0000 F   0  0
   -2.5128   -1.9789    0.0000 F   0  0
   -3.1005   -1.1699    0.0000 F   0  0
   -2.6938   -0.2563    0.0000 F   0  0
   -1.6993   -0.1518    0.0000 F   0  0
   -0.5237   -1.7698    0.0000 C   0  0
    0.4708   -1.6652    0.0000 C   0  0
    2.5411   -1.3903    0.0000 C   0  0
    2.3331   -2.3684    0.0000 S   0  0
    3.4546   -0.9835    0.0000 N   0  0
    4.3207   -1.4835    0.0000 C   0  0
    4.3207   -2.4835    0.0000 C   0  0
    5.1867   -2.9835    0.0000 C   0  0
    6.0527   -2.4835    0.0000 C   0  0
    6.9187   -2.9835    0.0000 C   0  0
    7.4187   -2.1175    0.0000 F   0  0
    7.7847   -3.4835    0.0000 F   0  0
    6.4187   -3.8495    0.0000 F   0  0
    6.0527   -1.4835    0.0000 C   0  0
    5.1867   -0.9835    0.0000 C   0  0
  1  2  1  0
  2  3  1  0
  2  4  1  0
  4  5  2  0
  4  6  1  0
  6  7  1  0
  7  8  2  0
  8  9  1  0
  9 10  2  0
 10 11  1  0
 11 12  1  0
 11 13  1  0
 11 14  1  0
 11 15  1  0
 11 16  1  0
 10 17  1  0
 17 18  2  0
 18  7  1  0
  6 19  1  0
 19 20  2  0
 19 21  1  0
 21  2  1  0
 21 22  1  0
 22 23  2  0
 23 24  1  0
 24 25  2  0
 25 26  1  0
 26 27  1  0
 26 28  1  0
 26 29  1  0
 25 30  1  0
 30 31  2  0
 31 22  1  0
M  END
> <assay_chembl_id>
CHEMBL4367683

> <assay_description>
Antiproliferative activity against human 22Rv1 cells assessed as reduction in cell growth incubated for 96 hrs by propidium iodide based 2D monolayer assay

> <document_journal>
Eur J Med Chem

> <molecule_chembl_id>
CHEMBL4553610

> <standard_value>
100000

> <IC50_uM>
100

> <Activity>
No

> <Canonical_Smiles>
CC1(C)C(=O)N(c2ccc(S(F)(F)(F)(F)F)cc2)C(=S)N1c1ccc(C(F)(F)F)cc1

$$$$

  SciTegic03142313312D

 31 33  0  0  0  0            999 V2000
   -3.4546    0.9945    0.0000 C   0  0
   -3.8614    1.9080    0.0000 C   0  0
   -4.7274    1.4080    0.0000 C   0  0
   -2.9103    2.2171    0.0000 C   0  0
   -2.1012    1.6294    0.0000 O   0  0
   -2.9104    3.2170    0.0000 N   0  0
   -2.1014    3.8048    0.0000 C   0  0
   -1.1878    3.3981    0.0000 C   0  0
   -0.3788    3.9859    0.0000 C   0  0
   -0.4834    4.9804    0.0000 C   0  0
    0.3256    5.5682    0.0000 S   0  0
   -0.5879    5.9749    0.0000 F   0  0
    0.2211    6.5627    0.0000 F   0  0
    1.1346    6.1560    0.0000 F   0  0
    1.2392    5.1615    0.0000 F   0  0
    0.4302    4.5737    0.0000 F   0  0
   -1.3969    5.3871    0.0000 C   0  0
   -2.2059    4.7993    0.0000 C   0  0
   -3.8613    3.5261    0.0000 C   0  0
   -4.1703    4.4771    0.0000 S   0  0
   -4.4492    2.7170    0.0000 N   0  0
   -5.4492    2.7170    0.0000 C   0  0
   -5.9492    1.8510    0.0000 C   0  0
   -6.9491    1.8510    0.0000 C   0  0
   -7.4491    2.7170    0.0000 C   0  0
   -6.9491    3.5830    0.0000 C   0  0
   -7.4491    4.4491    0.0000 C   0  0
   -8.3152    3.9491    0.0000 F   0  0
   -7.9491    5.3151    0.0000 F   0  0
   -6.5831    4.9491    0.0000 F   0  0
   -5.9491    3.5831    0.0000 C   0  0
  1  2  1  0
  2  3  1  0
  2  4  1  0
  4  5  2  0
  4  6  1  0
  6  7  1  0
  7  8  2  0
  8  9  1  0
  9 10  2  0
 10 11  1  0
 11 12  1  0
 11 13  1  0
 11 14  1  0
 11 15  1  0
 11 16  1  0
 10 17  1  0
 17 18  2  0
 18  7  1  0
  6 19  1  0
 19 20  2  0
 19 21  1  0
 21  2  1  0
 21 22  1  0
 22 23  2  0
 23 24  1  0
 24 25  2  0
 25 26  1  0
 26 27  1  0
 27 28  1  0
 27 29  1  0
 27 30  1  0
 26 31  2  0
 31 22  1  0
M  END
> <assay_chembl_id>
CHEMBL4367683

> <assay_description>
Antiproliferative activity against human 22Rv1 cells assessed as reduction in cell growth incubated for 96 hrs by propidium iodide based 2D monolayer assay

> <document_journal>
Eur J Med Chem

> <molecule_chembl_id>
CHEMBL4551097

> <standard_value>
59600

> <IC50_uM>
59.6

> <Activity>
No

> <Canonical_Smiles>
CC1(C)C(=O)N(c2ccc(S(F)(F)(F)(F)F)cc2)C(=S)N1c1cccc(C(F)(F)F)c1

$$$$

  SciTegic03142313312D

 31 33  0  0  0  0            999 V2000
   -2.5056   -2.1535    0.0000 C   0  0
   -2.8147   -1.2024    0.0000 C   0  0
   -3.7282   -1.6091    0.0000 C   0  0
   -1.8365   -0.9945    0.0000 C   0  0
   -1.0933   -1.6636    0.0000 O   0  0
   -1.7320    0.0000    0.0000 N   0  0
   -0.8660    0.5000    0.0000 C   0  0
   -0.8660    1.5000    0.0000 C   0  0
    0.0000    2.0000    0.0000 C   0  0
    0.8660    1.5000    0.0000 C   0  0
    0.8660    0.5000    0.0000 C   0  0
    1.7320    0.0000    0.0000 S   0  0
    1.7320    1.0000    0.0000 F   0  0
    2.5981    0.5000    0.0000 F   0  0
    2.5981   -0.5000    0.0000 F   0  0
    1.7320   -1.0000    0.0000 F   0  0
    0.8660   -0.5000    0.0000 F   0  0
    0.0000    0.0000    0.0000 C   0  0
   -2.6455    0.4068    0.0000 C   0  0
   -2.8534    1.3849    0.0000 S   0  0
   -3.3147   -0.3364    0.0000 N   0  0
   -4.3092   -0.2318    0.0000 C   0  0
   -4.7159    0.6817    0.0000 C   0  0
   -5.7104    0.7862    0.0000 C   0  0
   -6.2982   -0.0228    0.0000 C   0  0
   -7.2927    0.0818    0.0000 C   0  0
   -7.3973   -0.9127    0.0000 F   0  0
   -8.2872    0.1863    0.0000 F   0  0
   -7.1882    1.0763    0.0000 F   0  0
   -5.8915   -0.9363    0.0000 C   0  0
   -4.8970   -1.0408    0.0000 C   0  0
  1  2  1  0
  2  3  1  0
  2  4  1  0
  4  5  2  0
  4  6  1  0
  6  7  1  0
  7  8  2  0
  8  9  1  0
  9 10  2  0
 10 11  1  0
 11 12  1  0
 12 13  1  0
 12 14  1  0
 12 15  1  0
 12 16  1  0
 12 17  1  0
 11 18  2  0
 18  7  1  0
  6 19  1  0
 19 20  2  0
 19 21  1  0
 21  2  1  0
 21 22  1  0
 22 23  2  0
 23 24  1  0
 24 25  2  0
 25 26  1  0
 26 27  1  0
 26 28  1  0
 26 29  1  0
 25 30  1  0
 30 31  2  0
 31 22  1  0
M  END
> <assay_chembl_id>
CHEMBL4367683

> <assay_description>
Antiproliferative activity against human 22Rv1 cells assessed as reduction in cell growth incubated for 96 hrs by propidium iodide based 2D monolayer assay

> <document_journal>
Eur J Med Chem

> <molecule_chembl_id>
CHEMBL4437957

> <standard_value>
22400

> <IC50_uM>
22.4

> <Activity>
No

> <Canonical_Smiles>
CC1(C)C(=O)N(c2cccc(S(F)(F)(F)(F)F)c2)C(=S)N1c1ccc(C(F)(F)F)cc1

$$$$

  SciTegic03142313312D

 31 33  0  0  0  0            999 V2000
   -3.4546    0.9945    0.0000 C   0  0
   -2.6456    0.4067    0.0000 C   0  0
   -2.1456    1.2728    0.0000 C   0  0
   -3.3147   -0.3365    0.0000 C   0  0
   -4.3092   -0.2320    0.0000 O   0  0
   -2.8147   -1.2024    0.0000 N   0  0
   -3.2214   -2.1159    0.0000 C   0  0
   -2.6336   -2.9250    0.0000 C   0  0
   -3.0403   -3.8385    0.0000 C   0  0
   -4.0348   -3.9430    0.0000 C   0  0
   -4.6226   -3.1340    0.0000 C   0  0
   -5.6171   -3.2386    0.0000 S   0  0
   -5.0293   -4.0476    0.0000 F   0  0
   -6.0238   -4.1521    0.0000 F   0  0
   -6.6116   -3.3431    0.0000 F   0  0
   -6.2049   -2.4296    0.0000 F   0  0
   -5.2104   -2.3250    0.0000 F   0  0
   -4.2159   -2.2205    0.0000 C   0  0
   -1.8366   -0.9946    0.0000 C   0  0
   -1.0935   -1.6637    0.0000 S   0  0
   -1.7320    0.0000    0.0000 N   0  0
   -0.8660    0.5000    0.0000 C   0  0
   -0.8660    1.5000    0.0000 C   0  0
    0.0000    2.0000    0.0000 C   0  0
    0.8660    1.5000    0.0000 C   0  0
    0.8660    0.5000    0.0000 C   0  0
    1.7320    0.0000    0.0000 C   0  0
    2.2320    0.8660    0.0000 F   0  0
    2.5981   -0.5000    0.0000 F   0  0
    1.2320   -0.8660    0.0000 F   0  0
    0.0000    0.0000    0.0000 C   0  0
  1  2  1  0
  2  3  1  0
  2  4  1  0
  4  5  2  0
  4  6  1  0
  6  7  1  0
  7  8  2  0
  8  9  1  0
  9 10  2  0
 10 11  1  0
 11 12  1  0
 12 13  1  0
 12 14  1  0
 12 15  1  0
 12 16  1  0
 12 17  1  0
 11 18  2  0
 18  7  1  0
  6 19  1  0
 19 20  2  0
 19 21  1  0
 21  2  1  0
 21 22  1  0
 22 23  2  0
 23 24  1  0
 24 25  2  0
 25 26  1  0
 26 27  1  0
 27 28  1  0
 27 29  1  0
 27 30  1  0
 26 31  2  0
 31 22  1  0
M  END
> <assay_chembl_id>
CHEMBL4367683

> <assay_description>
Antiproliferative activity against human 22Rv1 cells assessed as reduction in cell growth incubated for 96 hrs by propidium iodide based 2D monolayer assay

> <document_journal>
Eur J Med Chem

> <molecule_chembl_id>
CHEMBL4540892

> <standard_value>
100000

> <IC50_uM>
100

> <Activity>
No

> <Canonical_Smiles>
CC1(C)C(=O)N(c2cccc(S(F)(F)(F)(F)F)c2)C(=S)N1c1cccc(C(F)(F)F)c1

$$$$

  SciTegic03142313312D

 32 34  0  0  0  0            999 V2000
    8.6939    0.9001    0.0000 C   0  0
    7.6994    1.0047    0.0000 N   0  0
    7.2927    1.9182    0.0000 C   0  0
    7.8805    2.7272    0.0000 O   0  0
    6.2982    2.0228    0.0000 C   0  0
    5.7104    1.2138    0.0000 C   0  0
    4.7159    1.3183    0.0000 C   0  0
    4.3092    2.2318    0.0000 C   0  0
    3.3147    2.3364    0.0000 N   0  0
    2.6455    1.5932    0.0000 C   0  0
    2.8534    0.6151    0.0000 S   0  0
    1.7320    2.0000    0.0000 N   0  0
    0.8660    1.5000    0.0000 C   0  0
    0.0000    2.0000    0.0000 C   0  0
   -0.8660    1.5000    0.0000 C   0  0
   -0.8660    0.5000    0.0000 C   0  0
   -1.7320    0.0000    0.0000 S   0  0
   -0.8660   -0.5000    0.0000 F   0  0
   -1.7320   -1.0000    0.0000 F   0  0
   -2.5981   -0.5000    0.0000 F   0  0
   -2.5981    0.5000    0.0000 F   0  0
   -1.7320    1.0000    0.0000 F   0  0
    0.0000    0.0000    0.0000 C   0  0
    0.8660    0.5000    0.0000 C   0  0
    1.8365    2.9945    0.0000 C   0  0
    1.0933    3.6636    0.0000 O   0  0
    2.8147    3.2024    0.0000 C   0  0
    2.5056    4.1535    0.0000 C   0  0
    3.7282    3.6091    0.0000 C   0  0
    4.8970    3.0408    0.0000 C   0  0
    5.8915    2.9363    0.0000 C   0  0
    6.4793    3.7453    0.0000 F   0  0
  1  2  1  0
  2  3  1  0
  3  4  2  0
  3  5  1  0
  5  6  2  0
  6  7  1  0
  7  8  2  0
  8  9  1  0
  9 10  1  0
 10 11  2  0
 10 12  1  0
 12 13  1  0
 13 14  2  0
 14 15  1  0
 15 16  2  0
 16 17  1  0
 17 18  1  0
 17 19  1  0
 17 20  1  0
 17 21  1  0
 17 22  1  0
 16 23  1  0
 23 24  2  0
 24 13  1  0
 12 25  1  0
 25 26  2  0
 25 27  1  0
 27  9  1  0
 27 28  1  0
 27 29  1  0
  8 30  1  0
 30 31  2  0
 31  5  1  0
 31 32  1  0
M  END
> <assay_chembl_id>
CHEMBL4367683

> <assay_description>
Antiproliferative activity against human 22Rv1 cells assessed as reduction in cell growth incubated for 96 hrs by propidium iodide based 2D monolayer assay

> <document_journal>
Eur J Med Chem

> <molecule_chembl_id>
CHEMBL4574240

> <standard_value>
32100

> <IC50_uM>
32.1

> <Activity>
No

> <Canonical_Smiles>
CNC(=O)c1ccc(N2C(=S)N(c3ccc(S(F)(F)(F)(F)F)cc3)C(=O)C2(C)C)cc1F

$$$$

  SciTegic03142313312D

 32 34  0  0  0  0            999 V2000
   -8.6939    1.0999    0.0000 C   0  0
   -7.6994    0.9953    0.0000 N   0  0
   -7.2927    0.0818    0.0000 C   0  0
   -7.8805   -0.7272    0.0000 O   0  0
   -6.2982   -0.0228    0.0000 C   0  0
   -5.7104    0.7862    0.0000 C   0  0
   -4.7159    0.6817    0.0000 C   0  0
   -4.3092   -0.2318    0.0000 C   0  0
   -3.3147   -0.3364    0.0000 N   0  0
   -2.6455    0.4068    0.0000 C   0  0
   -2.8534    1.3849    0.0000 S   0  0
   -1.7320    0.0000    0.0000 N   0  0
   -0.8660    0.5000    0.0000 C   0  0
   -0.8660    1.5000    0.0000 C   0  0
    0.0000    2.0000    0.0000 C   0  0
    0.8660    1.5000    0.0000 C   0  0
    0.8660    0.5000    0.0000 C   0  0
    1.7320    0.0000    0.0000 S   0  0
    1.7320    1.0000    0.0000 F   0  0
    2.5981    0.5000    0.0000 F   0  0
    2.5981   -0.5000    0.0000 F   0  0
    1.7320   -1.0000    0.0000 F   0  0
    0.8660   -0.5000    0.0000 F   0  0
    0.0000    0.0000    0.0000 C   0  0
   -1.8365   -0.9945    0.0000 C   0  0
   -1.0933   -1.6636    0.0000 O   0  0
   -2.8147   -1.2024    0.0000 C   0  0
   -2.5056   -2.1535    0.0000 C   0  0
   -3.7282   -1.6091    0.0000 C   0  0
   -4.8970   -1.0408    0.0000 C   0  0
   -5.8915   -0.9363    0.0000 C   0  0
   -6.4793   -1.7453    0.0000 F   0  0
  1  2  1  0
  2  3  1  0
  3  4  2  0
  3  5  1  0
  5  6  2  0
  6  7  1  0
  7  8  2  0
  8  9  1  0
  9 10  1  0
 10 11  2  0
 10 12  1  0
 12 13  1  0
 13 14  2  0
 14 15  1  0
 15 16  2  0
 16 17  1  0
 17 18  1  0
 18 19  1  0
 18 20  1  0
 18 21  1  0
 18 22  1  0
 18 23  1  0
 17 24  2  0
 24 13  1  0
 12 25  1  0
 25 26  2  0
 25 27  1  0
 27  9  1  0
 27 28  1  0
 27 29  1  0
  8 30  1  0
 30 31  2  0
 31  5  1  0
 31 32  1  0
M  END
> <assay_chembl_id>
CHEMBL4367683

> <assay_description>
Antiproliferative activity against human 22Rv1 cells assessed as reduction in cell growth incubated for 96 hrs by propidium iodide based 2D monolayer assay

> <document_journal>
Eur J Med Chem

> <molecule_chembl_id>
CHEMBL4528674

> <standard_value>
37300

> <IC50_uM>
37.3

> <Activity>
No

> <Canonical_Smiles>
CNC(=O)c1ccc(N2C(=S)N(c3cccc(S(F)(F)(F)(F)F)c3)C(=O)C2(C)C)cc1F

$$$$

  SciTegic03142313312D

 38 40  0  0  0  0            999 V2000
    3.8926   -3.7566    0.0000 C   0  0
    2.5951   -3.0039    0.0000 O   0  0
    2.5973   -1.5031    0.0000 C   0  0
    3.8976   -0.7553    0.0000 O   0  0
    1.2990   -0.7500    0.0000 C   0  0
    1.2990    0.7500    0.0000 C   0  0
    0.0000    1.5000    0.0000 C   0  0
   -1.2990    0.7500    0.0000 C   0  0
   -2.6003    1.4977    0.0000 C   0  0
   -3.8990    0.7455    0.0000 S   0  0
   -3.8964   -0.7545    0.0000 O   0  0
   -2.5988   -0.0025    0.0000 O   0  0
   -5.2003    1.4932    0.0000 N   0  0
   -6.4990    0.7409    0.0000 C   0  0
   -7.8007    1.4864    0.0000 C   0  0
   -9.0971    0.7319    0.0000 C   0  0
   -9.0919   -0.7681    0.0000 C   0  0
  -10.3890   -1.5230    0.0000 C   0  0
  -10.3815   -3.0230    0.0000 C   0  0
  -11.6768   -3.7796    0.0000 C   0  0
  -12.9796   -3.0362    0.0000 C   0  0
  -13.9385   -4.1907    0.0000 C   0  0
  -15.4169   -3.9372    0.0000 O   0  0
  -13.4190   -5.5987    0.0000 C   0  0
  -14.3773   -6.7527    0.0000 F   0  0
  -12.8990   -7.0058    0.0000 F   0  0
  -11.9405   -5.8522    0.0000 F   0  0
  -14.4706   -2.7562    0.0000 C   0  0
  -15.9492   -2.5040    0.0000 F   0  0
  -14.9916   -1.3497    0.0000 F   0  0
  -13.5131   -1.6016    0.0000 F   0  0
  -12.9872   -1.5362    0.0000 C   0  0
  -11.6919   -0.7796    0.0000 C   0  0
  -11.6995    0.7204    0.0000 F   0  0
   -7.7903   -1.5136    0.0000 C   0  0
   -6.4939   -0.7591    0.0000 C   0  0
   -1.2990   -0.7500    0.0000 C   0  0
    0.0000   -1.5000    0.0000 C   0  0
  1  2  1  0
  2  3  1  0
  3  4  2  0
  3  5  1  0
  5  6  2  0
  6  7  1  0
  7  8  2  0
  8  9  1  0
  9 10  1  0
 10 11  2  0
 10 12  2  0
 10 13  1  0
 13 14  1  0
 14 15  2  0
 15 16  1  0
 16 17  2  0
 17 18  1  0
 18 19  2  0
 19 20  1  0
 20 21  2  0
 21 22  1  0
 22 23  1  0
 22 24  1  0
 24 25  1  0
 24 26  1  0
 24 27  1  0
 22 28  1  0
 28 29  1  0
 28 30  1  0
 28 31  1  0
 21 32  1  0
 32 33  2  0
 33 18  1  0
 33 34  1  0
 17 35  1  0
 35 36  2  0
 36 14  1  0
  8 37  1  0
 37 38  2  0
 38  5  1  0
M  END
> <assay_chembl_id>
CHEMBL4394444

> <assay_description>
Antiproliferative activity against human 22Rv1 cells measured after 96 hrs by celltiter-glo assay

> <document_journal>
J Med Chem

> <molecule_chembl_id>
CHEMBL4455520

> <standard_value>
23590

> <IC50_uM>
23.59

> <Activity>
No

> <Canonical_Smiles>
COC(=O)c1ccc(CS(=O)(=O)Nc2ccc(-c3ccc(C(O)(C(F)(F)F)C(F)(F)F)cc3F)cc2)cc1

$$$$

  SciTegic03142313312D

 40 45  0  0  0  0            999 V2000
    5.1887   -6.0105    0.0000 C   0  0
    3.8912   -5.2578    0.0000 N   0  0
    2.5909   -6.0056    0.0000 C   0  0
    3.8933   -3.7570    0.0000 C   0  0
    2.5951   -3.0039    0.0000 C   0  0
    2.5973   -1.5031    0.0000 C   0  0
    1.2990   -0.7500    0.0000 N   0  0
    1.2990    0.7500    0.0000 C   0  0
    2.5981    1.5000    0.0000 O   0  0
    0.0000    1.5000    0.0000 C   0  0
    0.0000    3.0000    0.0000 C   0  0
   -1.2991    3.7500    0.0000 C   0  0
   -2.5981    3.0000    0.0000 C   0  0
   -3.8971    3.7500    0.0000 C   0  0
   -3.8972    5.2500    0.0000 O   0  0
   -5.1962    3.0000    0.0000 N   0  0
   -6.4975    3.7477    0.0000 C   0  0
   -7.7962    2.9954    0.0000 C   0  0
   -9.0975    3.7432    0.0000 C   0  0
  -10.3961    2.9909    0.0000 N   0  0
  -11.6967    3.7382    0.0000 C   0  0
  -10.3935    1.4909    0.0000 C   0  0
   -5.1962    1.5000    0.0000 C   0  0
   -6.4952    0.7500    0.0000 O   0  0
   -3.8971    0.7500    0.0000 C   0  0
   -3.8971   -0.7500    0.0000 C   0  0
   -5.1961   -1.5000    0.0000 N   0  0
   -5.1961   -3.0000    0.0000 C   0  0
   -6.4952   -3.7501    0.0000 C   0  0
   -6.4951   -5.2501    0.0000 C   0  0
   -5.1961   -6.0000    0.0000 C   0  0
   -3.8971   -5.2500    0.0000 C   0  0
   -3.8971   -3.7500    0.0000 C   0  0
   -2.5981   -3.0000    0.0000 N   0  0
   -2.5981   -1.5000    0.0000 C   0  0
   -1.2990   -0.7500    0.0000 C   0  0
    0.0000   -1.5000    0.0000 C   0  0
    0.0000   -3.0000    0.0000 O   0  0
   -1.2990    0.7500    0.0000 C   0  0
   -2.5981    1.5000    0.0000 C   0  0
  1  2  1  0
  2  3  1  0
  2  4  1  0
  4  5  1  0
  5  6  1  0
  6  7  1  0
  7  8  1  0
  8  9  2  0
  8 10  1  0
 10 11  2  0
 11 12  1  0
 12 13  2  0
 13 14  1  0
 14 15  2  0
 14 16  1  0
 16 17  1  0
 17 18  1  0
 18 19  1  0
 19 20  1  0
 20 21  1  0
 20 22  1  0
 16 23  1  0
 23 24  2  0
 23 25  1  0
 25 26  2  0
 26 27  1  0
 27 28  1  0
 28 29  2  0
 29 30  1  0
 30 31  2  0
 31 32  1  0
 32 33  2  0
 33 28  1  0
 33 34  1  0
 34 35  1  0
 35 26  1  0
 35 36  2  0
 36 37  1  0
 37  7  1  0
 37 38  2  0
 36 39  1  0
 39 10  1  0
 39 40  2  0
 40 13  1  0
 40 25  1  0
M  END
> <assay_chembl_id>
CHEMBL4411622

> <assay_description>
Cytotoxicity against human 22Rv1 cells expressing full length androgen receptor H875Y point mutant assessed as reduction in cell viability after 48 hrs by MTS assay

> <document_journal>
J Med Chem

> <molecule_chembl_id>
CHEMBL4468209

> <standard_value>
10

> <IC50_uM>
0.01

> <Activity>
Yes

> <RemovedSalts>
HCl
HCl

> <Canonical_Smiles>
CN(C)CCCn1c(=O)c2ccc3c(=O)n(CCCN(C)C)c(=O)c4c5[nH]c6ccccc6[nH]c5c(c1=O)c2c34.Cl.Cl

$$$$

  SciTegic03142313312D

 43 47  0  0  0  0            999 V2000
    3.8912   -5.2570    0.0000 C   0  0
    3.8933   -3.7570    0.0000 N   0  0
    5.1937   -3.0093    0.0000 C   0  0
    2.5951   -3.0039    0.0000 C   0  0
    2.5973   -1.5031    0.0000 C   0  0
    1.2990   -0.7500    0.0000 N   0  0
    1.2990    0.7500    0.0000 C   0  0
    2.5981    1.5000    0.0000 O   0  0
    0.0000    1.5000    0.0000 C   0  0
    0.0000    3.0000    0.0000 C   0  0
   -1.2991    3.7500    0.0000 C   0  0
   -2.5981    3.0000    0.0000 C   0  0
   -2.5981    1.5000    0.0000 C   0  0
   -3.8971    0.7500    0.0000 C   0  0
   -3.8971   -0.7500    0.0000 C   0  0
   -5.1969   -1.5004    0.0000 C   0  0
   -6.4966   -2.2509    0.0000 C   0  0
   -7.7964   -3.0013    0.0000 C   0  0
   -7.7963   -4.5013    0.0000 C   0  0
   -9.0954   -5.2513    0.0000 C   0  0
  -10.3944   -4.5013    0.0000 C   0  0
  -11.6926   -5.2544    0.0000 C   0  0
  -11.6905   -6.7552    0.0000 N   0  0
  -12.9880   -7.5079    0.0000 C   0  0
  -10.3901   -7.5030    0.0000 C   0  0
  -10.3944   -3.0013    0.0000 C   0  0
  -11.6935   -2.2513    0.0000 O   0  0
   -9.0954   -2.2513    0.0000 C   0  0
   -2.5981   -1.5000    0.0000 C   0  0
   -1.2990   -0.7500    0.0000 C   0  0
   -1.2990    0.7500    0.0000 C   0  0
    0.0000   -1.5000    0.0000 C   0  0
    0.0000   -3.0000    0.0000 O   0  0
   -5.1962    1.5000    0.0000 C   0  0
   -6.4952    0.7500    0.0000 O   0  0
   -5.1962    3.0000    0.0000 N   0  0
   -6.4944    3.7531    0.0000 C   0  0
   -6.4923    5.2539    0.0000 C   0  0
   -7.7905    6.0070    0.0000 N   0  0
   -7.7883    7.5070    0.0000 C   0  0
   -9.0908    5.2592    0.0000 C   0  0
   -3.8971    3.7500    0.0000 C   0  0
   -3.8971    5.2500    0.0000 O   0  0
  1  2  1  0
  2  3  1  0
  2  4  1  0
  4  5  1  0
  5  6  1  0
  6  7  1  0
  7  8  2  0
  7  9  1  0
  9 10  2  0
 10 11  1  0
 11 12  2  0
 12 13  1  0
 13 14  2  0
 14 15  1  0
 15 16  1  0
 16 17  3  0
 17 18  1  0
 18 19  2  0
 19 20  1  0
 20 21  2  0
 21 22  1  0
 22 23  1  0
 23 24  1  0
 23 25  1  0
 21 26  1  0
 26 27  1  0
 26 28  2  0
 28 18  1  0
 15 29  2  0
 29 30  1  0
 30 31  2  0
 31  9  1  0
 31 13  1  0
 30 32  1  0
 32  6  1  0
 32 33  2  0
 14 34  1  0
 34 35  2  0
 34 36  1  0
 36 37  1  0
 37 38  1  0
 38 39  1  0
 39 40  1  0
 39 41  1  0
 36 42  1  0
 42 12  1  0
 42 43  2  0
M  END
> <assay_chembl_id>
CHEMBL4411622

> <assay_description>
Cytotoxicity against human 22Rv1 cells expressing full length androgen receptor H875Y point mutant assessed as reduction in cell viability after 48 hrs by MTS assay

> <document_journal>
J Med Chem

> <molecule_chembl_id>
CHEMBL4526946

> <standard_value>
970

> <IC50_uM>
0.97

> <Activity>
Yes

> <RemovedSalts>
HCl
HCl
HCl

> <Canonical_Smiles>
CN(C)CCN1C(=O)c2ccc3c4c(c(C#Cc5ccc(CN(C)C)c(O)c5)cc(c24)C1=O)C(=O)N(CCN(C)C)C3=O.Cl.Cl.Cl

$$$$

  SciTegic03142313312D

 44 48  0  0  0  0            999 V2000
    3.8912   -5.2570    0.0000 C   0  0
    3.8933   -3.7570    0.0000 N   0  0
    5.1937   -3.0093    0.0000 C   0  0
    2.5951   -3.0039    0.0000 C   0  0
    2.5973   -1.5031    0.0000 C   0  0
    1.2990   -0.7500    0.0000 N   0  0
    1.2990    0.7500    0.0000 C   0  0
    2.5981    1.5000    0.0000 O   0  0
    0.0000    1.5000    0.0000 C   0  0
    0.0000    3.0000    0.0000 C   0  0
   -1.2991    3.7500    0.0000 C   0  0
   -2.5981    3.0000    0.0000 C   0  0
   -2.5981    1.5000    0.0000 C   0  0
   -3.8971    0.7500    0.0000 C   0  0
   -3.8971   -0.7500    0.0000 C   0  0
   -5.1953   -1.5031    0.0000 N   0  0
   -5.1932   -3.0039    0.0000 C   0  0
   -6.4914   -3.7570    0.0000 C   0  0
   -6.4892   -5.2579    0.0000 C   0  0
   -7.7856   -6.0125    0.0000 C   0  0
   -7.7804   -7.5124    0.0000 C   0  0
   -6.4788   -8.2579    0.0000 C   0  0
   -6.4736   -9.7579    0.0000 O   0  0
   -5.1824   -7.5034    0.0000 C   0  0
   -3.8785   -8.2467    0.0000 C   0  0
   -2.5824   -7.4899    0.0000 N   0  0
   -1.2793   -8.2327    0.0000 C   0  0
   -2.5902   -5.9899    0.0000 C   0  0
   -5.1876   -6.0034    0.0000 C   0  0
   -2.5981   -1.5000    0.0000 C   0  0
   -1.2990   -0.7500    0.0000 C   0  0
   -1.2990    0.7500    0.0000 C   0  0
    0.0000   -1.5000    0.0000 C   0  0
    0.0000   -3.0000    0.0000 O   0  0
   -5.1962    1.5000    0.0000 C   0  0
   -6.4952    0.7500    0.0000 O   0  0
   -5.1962    3.0000    0.0000 N   0  0
   -6.4944    3.7531    0.0000 C   0  0
   -6.4923    5.2539    0.0000 C   0  0
   -7.7905    6.0070    0.0000 N   0  0
   -7.7883    7.5070    0.0000 C   0  0
   -9.0908    5.2592    0.0000 C   0  0
   -3.8971    3.7500    0.0000 C   0  0
   -3.8971    5.2500    0.0000 O   0  0
  1  2  1  0
  2  3  1  0
  2  4  1  0
  4  5  1  0
  5  6  1  0
  6  7  1  0
  7  8  2  0
  7  9  1  0
  9 10  2  0
 10 11  1  0
 11 12  2  0
 12 13  1  0
 13 14  2  0
 14 15  1  0
 15 16  1  0
 16 17  1  0
 17 18  1  0
 18 19  1  0
 19 20  2  0
 20 21  1  0
 21 22  2  0
 22 23  1  0
 22 24  1  0
 24 25  1  0
 25 26  1  0
 26 27  1  0
 26 28  1  0
 24 29  2  0
 29 19  1  0
 15 30  2  0
 30 31  1  0
 31 32  2  0
 32  9  1  0
 32 13  1  0
 31 33  1  0
 33  6  1  0
 33 34  2  0
 14 35  1  0
 35 36  2  0
 35 37  1  0
 37 38  1  0
 38 39  1  0
 39 40  1  0
 40 41  1  0
 40 42  1  0
 37 43  1  0
 43 12  1  0
 43 44  2  0
M  END
> <assay_chembl_id>
CHEMBL4411622

> <assay_description>
Cytotoxicity against human 22Rv1 cells expressing full length androgen receptor H875Y point mutant assessed as reduction in cell viability after 48 hrs by MTS assay

> <document_journal>
J Med Chem

> <molecule_chembl_id>
CHEMBL4565909

> <standard_value>
100

> <IC50_uM>
0.1

> <Activity>
Yes

> <RemovedSalts>
HCl
HCl
HCl

> <Canonical_Smiles>
CN(C)CCN1C(=O)c2ccc3c4c(c(NCCc5ccc(O)c(CN(C)C)c5)cc(c24)C1=O)C(=O)N(CCN(C)C)C3=O.Cl.Cl.Cl

$$$$

  SciTegic03142313312D

 30 31  0  0  0  0            999 V2000
    5.1937   -3.0093    0.0000 C   0  0
    3.8933   -3.7570    0.0000 C   0  0  3  0  0  0
    3.8962   -2.2570    0.0000 O   0  0
    2.5951   -3.0039    0.0000 C   0  0
    2.5973   -1.5031    0.0000 O   0  0
    1.2990   -0.7500    0.0000 C   0  0
    1.2990    0.7500    0.0000 C   0  0
    0.0000    1.5000    0.0000 C   0  0
   -1.2990    0.7500    0.0000 C   0  0
   -2.5988    1.5004    0.0000 C   0  0
   -2.5998    3.0004    0.0000 F   0  0
   -3.8976    0.7500    0.0000 F   0  0
   -3.8982    2.2498    0.0000 F   0  0
   -1.2990   -0.7500    0.0000 C   0  0
    0.0000   -1.5000    0.0000 C   0  0
    3.8912   -5.2578    0.0000 C   0  0
    2.5909   -6.0056    0.0000 O   0  0
    5.1894   -6.0109    0.0000 N   0  0
    5.1873   -7.5117    0.0000 C   0  0
    3.8856   -8.2573    0.0000 C   0  0
    3.8804   -9.7573    0.0000 C   0  0
    5.1769  -10.5118    0.0000 C   0  0
    5.1717  -12.0126    0.0000 C   0  0
    5.1665  -13.5126    0.0000 N   0  0
    6.4785   -9.7663    0.0000 C   0  0
    6.4837   -8.2663    0.0000 C   0  0
    7.7860   -7.5204    0.0000 C   0  0
    9.0829   -8.2741    0.0000 F   0  0
    7.7908   -6.0204    0.0000 F   0  0
    9.0873   -6.7743    0.0000 F   0  0
  2  1  1  4
  2  3  1  0
  2  4  1  0
  4  5  1  0
  5  6  1  0
  6  7  2  0
  7  8  1  0
  8  9  2  0
  9 10  1  0
 10 11  1  0
 10 12  1  0
 10 13  1  0
  9 14  1  0
 14 15  2  0
 15  6  1  0
  2 16  1  0
 16 17  2  0
 16 18  1  0
 18 19  1  0
 19 20  2  0
 20 21  1  0
 21 22  2  0
 22 23  1  0
 23 24  3  0
 22 25  1  0
 25 26  2  0
 26 19  1  0
 26 27  1  0
 27 28  1  0
 27 29  1  0
 27 30  1  0
M  END
> <assay_chembl_id>
CHEMBL4477863

> <assay_description>
Antiproliferative activity against human 22Rv1 cells after 96 hrs by propidium iodide staining based fluorescence 2D monolayer assay

> <document_journal>
Eur J Med Chem

> <molecule_chembl_id>
CHEMBL4582085

> <standard_value>
29910

> <IC50_uM>
29.91

> <Activity>
No

> <Canonical_Smiles>
CC(O)(COc1ccc(C(F)(F)F)cc1)C(=O)Nc1ccc(C#N)cc1C(F)(F)F

$$$$

  SciTegic03142313312D

 31 32  0  0  0  0            999 V2000
    5.1937   -3.0093    0.0000 C   0  0
    3.8933   -3.7570    0.0000 C   0  0  3  0  0  0
    3.8962   -2.2570    0.0000 O   0  0
    2.5951   -3.0039    0.0000 C   0  0
    2.5973   -1.5031    0.0000 O   0  0
    1.2990   -0.7500    0.0000 C   0  0
    1.2990    0.7500    0.0000 C   0  0
    0.0000    1.5000    0.0000 C   0  0
   -1.2990    0.7500    0.0000 C   0  0
   -2.5988    1.5004    0.0000 C   0  0
   -2.5998    3.0004    0.0000 F   0  0
   -3.8976    0.7500    0.0000 F   0  0
   -3.8982    2.2498    0.0000 F   0  0
   -1.2990   -0.7500    0.0000 C   0  0
    0.0000   -1.5000    0.0000 N   0  0
    3.8912   -5.2578    0.0000 C   0  0
    2.5909   -6.0056    0.0000 O   0  0
    5.1894   -6.0109    0.0000 N   0  0
    5.1873   -7.5117    0.0000 C   0  0
    6.4837   -8.2663    0.0000 C   0  0
    6.4785   -9.7663    0.0000 C   0  0
    5.1769  -10.5118    0.0000 C   0  0
    5.1748  -12.0126    0.0000 N   0  3
    6.4723  -12.7653    0.0000 O   0  0
    3.8744  -12.7604    0.0000 O   0  5
    3.8804   -9.7573    0.0000 C   0  0
    2.5781  -10.5032    0.0000 C   0  0
    2.5720  -12.0032    0.0000 F   0  0
    1.2819   -9.7483    0.0000 F   0  0
    1.2761  -11.2481    0.0000 F   0  0
    3.8856   -8.2573    0.0000 C   0  0
  2  1  1  4
  2  3  1  0
  2  4  1  0
  4  5  1  0
  5  6  1  0
  6  7  2  0
  7  8  1  0
  8  9  2  0
  9 10  1  0
 10 11  1  0
 10 12  1  0
 10 13  1  0
  9 14  1  0
 14 15  2  0
 15  6  1  0
  2 16  1  0
 16 17  2  0
 16 18  1  0
 18 19  1  0
 19 20  2  0
 20 21  1  0
 21 22  2  0
 22 23  1  0
 23 24  2  0
 23 25  1  0
 22 26  1  0
 26 27  1  0
 27 28  1  0
 27 29  1  0
 27 30  1  0
 26 31  2  0
 31 19  1  0
M  CHG  2  23   1  25  -1
M  END
> <assay_chembl_id>
CHEMBL4477863

> <assay_description>
Antiproliferative activity against human 22Rv1 cells after 96 hrs by propidium iodide staining based fluorescence 2D monolayer assay

> <document_journal>
Eur J Med Chem

> <molecule_chembl_id>
CHEMBL4520829

> <standard_value>
35220

> <IC50_uM>
35.22

> <Activity>
No

> <Canonical_Smiles>
CC(O)(COc1ccc(C(F)(F)F)cn1)C(=O)Nc1ccc([N+](=O)[O-])c(C(F)(F)F)c1

$$$$

  SciTegic03142313312D

 29 30  0  0  0  0            999 V2000
    5.2029   -2.9932    0.0000 C   0  0
    5.2003   -1.4932    0.0000 C   0  0  3  0  0  0
    3.9027   -2.2457    0.0000 O   0  0
    3.8990   -0.7455    0.0000 C   0  0
    2.6003   -1.4977    0.0000 O   0  0
    1.2990   -0.7500    0.0000 C   0  0
    1.2990    0.7500    0.0000 C   0  0
    0.0000    1.5000    0.0000 C   0  0
   -1.2990    0.7500    0.0000 C   0  0
   -2.5981    1.5000    0.0000 F   0  0
   -1.2990   -0.7500    0.0000 C   0  0
    0.0000   -1.5000    0.0000 C   0  0
    0.0000   -3.0000    0.0000 F   0  0
    6.4990   -0.7409    0.0000 C   0  0
    6.4964    0.7591    0.0000 O   0  0
    7.8003   -1.4887    0.0000 N   0  0
    9.0990   -0.7364    0.0000 C   0  0
   10.4007   -1.4818    0.0000 C   0  0
   11.6971   -0.7274    0.0000 C   0  0
   11.6919    0.7726    0.0000 C   0  0
   12.9906    1.5249    0.0000 N   0  3
   14.2912    0.7775    0.0000 O   0  0
   12.9880    3.0249    0.0000 O   0  5
   10.3903    1.5181    0.0000 C   0  0
   10.3851    3.0190    0.0000 C   0  0
   11.6811    3.7743    0.0000 F   0  0
    9.0832    3.7640    0.0000 F   0  0
   10.3792    4.5189    0.0000 F   0  0
    9.0939    0.7636    0.0000 C   0  0
  2  1  1  4
  2  3  1  0
  2  4  1  0
  4  5  1  0
  5  6  1  0
  6  7  2  0
  7  8  1  0
  8  9  2  0
  9 10  1  0
  9 11  1  0
 11 12  2  0
 12  6  1  0
 12 13  1  0
  2 14  1  0
 14 15  2  0
 14 16  1  0
 16 17  1  0
 17 18  2  0
 18 19  1  0
 19 20  2  0
 20 21  1  0
 21 22  2  0
 21 23  1  0
 20 24  1  0
 24 25  1  0
 25 26  1  0
 25 27  1  0
 25 28  1  0
 24 29  2  0
 29 17  1  0
M  CHG  2  21   1  23  -1
M  END
> <assay_chembl_id>
CHEMBL4477863

> <assay_description>
Antiproliferative activity against human 22Rv1 cells after 96 hrs by propidium iodide staining based fluorescence 2D monolayer assay

> <document_journal>
Eur J Med Chem

> <molecule_chembl_id>
CHEMBL4533200

> <standard_value>
20160

> <IC50_uM>
20.16

> <Activity>
No

> <Canonical_Smiles>
CC(O)(COc1ccc(F)cc1F)C(=O)Nc1ccc([N+](=O)[O-])c(C(F)(F)F)c1

$$$$

  SciTegic03142313312D

 29 30  0  0  0  0            999 V2000
    5.1937   -3.0093    0.0000 C   0  0
    3.8933   -3.7570    0.0000 C   0  0  3  0  0  0
    3.8962   -2.2570    0.0000 O   0  0
    2.5951   -3.0039    0.0000 C   0  0
    2.5973   -1.5031    0.0000 O   0  0
    1.2990   -0.7500    0.0000 C   0  0
    1.2990    0.7500    0.0000 C   0  0
    0.0000    1.5000    0.0000 C   0  0
   -1.2990    0.7500    0.0000 C   0  0
   -2.5988    1.5004    0.0000 C   0  0
   -3.8978    2.2504    0.0000 N   0  0
   -1.2990   -0.7500    0.0000 C   0  0
    0.0000   -1.5000    0.0000 C   0  0
    3.8912   -5.2578    0.0000 C   0  0
    2.5909   -6.0056    0.0000 O   0  0
    5.1894   -6.0109    0.0000 N   0  0
    5.1873   -7.5117    0.0000 C   0  0
    6.4837   -8.2663    0.0000 C   0  0
    6.4785   -9.7663    0.0000 C   0  0
    5.1769  -10.5118    0.0000 C   0  0
    5.1748  -12.0126    0.0000 N   0  3
    6.4723  -12.7653    0.0000 O   0  0
    3.8744  -12.7604    0.0000 O   0  5
    3.8804   -9.7573    0.0000 C   0  0
    2.5781  -10.5032    0.0000 C   0  0
    2.5720  -12.0032    0.0000 F   0  0
    1.2819   -9.7483    0.0000 F   0  0
    1.2761  -11.2481    0.0000 F   0  0
    3.8856   -8.2573    0.0000 C   0  0
  2  1  1  4
  2  3  1  0
  2  4  1  0
  4  5  1  0
  5  6  1  0
  6  7  2  0
  7  8  1  0
  8  9  2  0
  9 10  1  0
 10 11  3  0
  9 12  1  0
 12 13  2  0
 13  6  1  0
  2 14  1  0
 14 15  2  0
 14 16  1  0
 16 17  1  0
 17 18  2  0
 18 19  1  0
 19 20  2  0
 20 21  1  0
 21 22  2  0
 21 23  1  0
 20 24  1  0
 24 25  1  0
 25 26  1  0
 25 27  1  0
 25 28  1  0
 24 29  2  0
 29 17  1  0
M  CHG  2  21   1  23  -1
M  END
> <assay_chembl_id>
CHEMBL4477863

> <assay_description>
Antiproliferative activity against human 22Rv1 cells after 96 hrs by propidium iodide staining based fluorescence 2D monolayer assay

> <document_journal>
Eur J Med Chem

> <molecule_chembl_id>
CHEMBL4525698

> <standard_value>
30920

> <IC50_uM>
30.92

> <Activity>
No

> <Canonical_Smiles>
CC(O)(COc1ccc(C#N)cc1)C(=O)Nc1ccc([N+](=O)[O-])c(C(F)(F)F)c1

$$$$

  SciTegic03142313312D

 31 32  0  0  0  0            999 V2000
    5.2029   -2.9932    0.0000 C   0  0
    5.2003   -1.4932    0.0000 C   0  0  3  0  0  0
    3.9027   -2.2457    0.0000 O   0  0
    3.8990   -0.7455    0.0000 C   0  0
    2.6003   -1.4977    0.0000 O   0  0
    1.2990   -0.7500    0.0000 C   0  0
    1.2990    0.7500    0.0000 C   0  0
    0.0000    1.5000    0.0000 C   0  0
   -1.2990    0.7500    0.0000 C   0  0
   -1.2990   -0.7500    0.0000 C   0  0
    0.0000   -1.5000    0.0000 C   0  0
    0.0000   -3.0008    0.0000 C   0  0
   -1.2986   -3.7517    0.0000 F   0  0
    1.2993   -3.7504    0.0000 F   0  0
    0.0007   -4.5008    0.0000 F   0  0
    6.4990   -0.7409    0.0000 C   0  0
    6.4964    0.7591    0.0000 O   0  0
    7.8003   -1.4887    0.0000 N   0  0
    9.0990   -0.7364    0.0000 C   0  0
   10.4007   -1.4818    0.0000 C   0  0
   11.6971   -0.7274    0.0000 C   0  0
   11.6919    0.7726    0.0000 C   0  0
   12.9906    1.5249    0.0000 N   0  3
   14.2912    0.7775    0.0000 O   0  0
   12.9880    3.0249    0.0000 O   0  5
   10.3903    1.5181    0.0000 C   0  0
   10.3851    3.0190    0.0000 C   0  0
   11.6811    3.7743    0.0000 F   0  0
    9.0832    3.7640    0.0000 F   0  0
   10.3792    4.5189    0.0000 F   0  0
    9.0939    0.7636    0.0000 C   0  0
  2  1  1  4
  2  3  1  0
  2  4  1  0
  4  5  1  0
  5  6  1  0
  6  7  2  0
  7  8  1  0
  8  9  2  0
  9 10  1  0
 10 11  2  0
 11  6  1  0
 11 12  1  0
 12 13  1  0
 12 14  1  0
 12 15  1  0
  2 16  1  0
 16 17  2  0
 16 18  1  0
 18 19  1  0
 19 20  2  0
 20 21  1  0
 21 22  2  0
 22 23  1  0
 23 24  2  0
 23 25  1  0
 22 26  1  0
 26 27  1  0
 27 28  1  0
 27 29  1  0
 27 30  1  0
 26 31  2  0
 31 19  1  0
M  CHG  2  23   1  25  -1
M  END
> <assay_chembl_id>
CHEMBL4477863

> <assay_description>
Antiproliferative activity against human 22Rv1 cells after 96 hrs by propidium iodide staining based fluorescence 2D monolayer assay

> <document_journal>
Eur J Med Chem

> <molecule_chembl_id>
CHEMBL4482919

> <standard_value>
20160

> <IC50_uM>
20.16

> <Activity>
No

> <Canonical_Smiles>
CC(O)(COc1ccccc1C(F)(F)F)C(=O)Nc1ccc([N+](=O)[O-])c(C(F)(F)F)c1

$$$$

  SciTegic03142313312D

 30 31  0  0  0  0            999 V2000
    5.1937   -3.0093    0.0000 C   0  0
    3.8933   -3.7570    0.0000 C   0  0  3  0  0  0
    3.8962   -2.2570    0.0000 O   0  0
    2.5951   -3.0039    0.0000 C   0  0
    2.5973   -1.5031    0.0000 O   0  0
    1.2990   -0.7500    0.0000 C   0  0
    1.2990    0.7500    0.0000 C   0  0
    0.0000    1.5000    0.0000 C   0  0
   -1.2990    0.7500    0.0000 C   0  0
   -2.5988    1.5004    0.0000 C   0  0
   -2.5998    3.0004    0.0000 F   0  0
   -3.8976    0.7500    0.0000 F   0  0
   -3.8982    2.2498    0.0000 F   0  0
   -1.2990   -0.7500    0.0000 C   0  0
    0.0000   -1.5000    0.0000 N   0  0
    3.8912   -5.2578    0.0000 C   0  0
    2.5909   -6.0056    0.0000 O   0  0
    5.1894   -6.0109    0.0000 N   0  0
    5.1873   -7.5117    0.0000 C   0  0
    6.4837   -8.2663    0.0000 C   0  0
    6.4785   -9.7663    0.0000 C   0  0
    5.1769  -10.5118    0.0000 C   0  0
    5.1717  -12.0126    0.0000 C   0  0
    5.1665  -13.5126    0.0000 N   0  0
    3.8804   -9.7573    0.0000 C   0  0
    2.5781  -10.5032    0.0000 C   0  0
    2.5720  -12.0032    0.0000 F   0  0
    1.2819   -9.7483    0.0000 F   0  0
    1.2761  -11.2481    0.0000 F   0  0
    3.8856   -8.2573    0.0000 C   0  0
  2  1  1  4
  2  3  1  0
  2  4  1  0
  4  5  1  0
  5  6  1  0
  6  7  2  0
  7  8  1  0
  8  9  2  0
  9 10  1  0
 10 11  1  0
 10 12  1  0
 10 13  1  0
  9 14  1  0
 14 15  2  0
 15  6  1  0
  2 16  1  0
 16 17  2  0
 16 18  1  0
 18 19  1  0
 19 20  2  0
 20 21  1  0
 21 22  2  0
 22 23  1  0
 23 24  3  0
 22 25  1  0
 25 26  1  0
 26 27  1  0
 26 28  1  0
 26 29  1  0
 25 30  2  0
 30 19  1  0
M  END
> <assay_chembl_id>
CHEMBL4477863

> <assay_description>
Antiproliferative activity against human 22Rv1 cells after 96 hrs by propidium iodide staining based fluorescence 2D monolayer assay

> <document_journal>
Eur J Med Chem

> <molecule_chembl_id>
CHEMBL4593765

> <standard_value>
100000

> <IC50_uM>
100

> <Activity>
No

> <Canonical_Smiles>
CC(O)(COc1ccc(C(F)(F)F)cn1)C(=O)Nc1ccc(C#N)c(C(F)(F)F)c1

$$$$

  SciTegic03142313312D

 28 29  0  0  0  0            999 V2000
    5.2029   -2.9932    0.0000 C   0  0
    5.2003   -1.4932    0.0000 C   0  0  3  0  0  0
    3.9027   -2.2457    0.0000 O   0  0
    3.8990   -0.7455    0.0000 C   0  0
    2.6003   -1.4977    0.0000 O   0  0
    1.2990   -0.7500    0.0000 C   0  0
    1.2990    0.7500    0.0000 C   0  0
    0.0000    1.5000    0.0000 C   0  0
   -1.2990    0.7500    0.0000 C   0  0
   -2.5981    1.5000    0.0000 F   0  0
   -1.2990   -0.7500    0.0000 C   0  0
    0.0000   -1.5000    0.0000 C   0  0
    0.0000   -3.0000    0.0000 F   0  0
    6.4990   -0.7409    0.0000 C   0  0
    6.4964    0.7591    0.0000 O   0  0
    7.8003   -1.4887    0.0000 N   0  0
    9.0990   -0.7364    0.0000 C   0  0
   10.4007   -1.4818    0.0000 C   0  0
   11.6971   -0.7274    0.0000 C   0  0
   11.6919    0.7726    0.0000 C   0  0
   12.9891    1.5275    0.0000 C   0  0
   14.2855    2.2820    0.0000 N   0  0
   10.3903    1.5181    0.0000 C   0  0
   10.3851    3.0190    0.0000 C   0  0
   11.6811    3.7743    0.0000 F   0  0
    9.0832    3.7640    0.0000 F   0  0
   10.3792    4.5189    0.0000 F   0  0
    9.0939    0.7636    0.0000 C   0  0
  2  1  1  4
  2  3  1  0
  2  4  1  0
  4  5  1  0
  5  6  1  0
  6  7  2  0
  7  8  1  0
  8  9  2  0
  9 10  1  0
  9 11  1  0
 11 12  2  0
 12  6  1  0
 12 13  1  0
  2 14  1  0
 14 15  2  0
 14 16  1  0
 16 17  1  0
 17 18  2  0
 18 19  1  0
 19 20  2  0
 20 21  1  0
 21 22  3  0
 20 23  1  0
 23 24  1  0
 24 25  1  0
 24 26  1  0
 24 27  1  0
 23 28  2  0
 28 17  1  0
M  END
> <assay_chembl_id>
CHEMBL4477863

> <assay_description>
Antiproliferative activity against human 22Rv1 cells after 96 hrs by propidium iodide staining based fluorescence 2D monolayer assay

> <document_journal>
Eur J Med Chem

> <molecule_chembl_id>
CHEMBL4531189

> <standard_value>
34000

> <IC50_uM>
34

> <Activity>
No

> <Canonical_Smiles>
CC(O)(COc1ccc(F)cc1F)C(=O)Nc1ccc(C#N)c(C(F)(F)F)c1

$$$$

  SciTegic03142313312D

 28 29  0  0  0  0            999 V2000
    5.1937   -3.0093    0.0000 C   0  0
    3.8933   -3.7570    0.0000 C   0  0  3  0  0  0
    3.8962   -2.2570    0.0000 O   0  0
    2.5951   -3.0039    0.0000 C   0  0
    2.5973   -1.5031    0.0000 O   0  0
    1.2990   -0.7500    0.0000 C   0  0
    1.2990    0.7500    0.0000 C   0  0
    0.0000    1.5000    0.0000 C   0  0
   -1.2990    0.7500    0.0000 C   0  0
   -2.5981    1.5000    0.0000 F   0  0
   -1.2990   -0.7500    0.0000 C   0  0
   -2.5981   -1.5000    0.0000 F   0  0
    0.0000   -1.5000    0.0000 C   0  0
    3.8912   -5.2578    0.0000 C   0  0
    2.5909   -6.0056    0.0000 O   0  0
    5.1894   -6.0109    0.0000 N   0  0
    5.1873   -7.5117    0.0000 C   0  0
    6.4837   -8.2663    0.0000 C   0  0
    6.4785   -9.7663    0.0000 C   0  0
    5.1769  -10.5118    0.0000 C   0  0
    5.1717  -12.0126    0.0000 C   0  0
    5.1665  -13.5126    0.0000 N   0  0
    3.8804   -9.7573    0.0000 C   0  0
    2.5781  -10.5032    0.0000 C   0  0
    2.5720  -12.0032    0.0000 F   0  0
    1.2819   -9.7483    0.0000 F   0  0
    1.2761  -11.2481    0.0000 F   0  0
    3.8856   -8.2573    0.0000 C   0  0
  2  1  1  4
  2  3  1  0
  2  4  1  0
  4  5  1  0
  5  6  1  0
  6  7  2  0
  7  8  1  0
  8  9  2  0
  9 10  1  0
  9 11  1  0
 11 12  1  0
 11 13  2  0
 13  6  1  0
  2 14  1  0
 14 15  2  0
 14 16  1  0
 16 17  1  0
 17 18  2  0
 18 19  1  0
 19 20  2  0
 20 21  1  0
 21 22  3  0
 20 23  1  0
 23 24  1  0
 24 25  1  0
 24 26  1  0
 24 27  1  0
 23 28  2  0
 28 17  1  0
M  END
> <assay_chembl_id>
CHEMBL4477863

> <assay_description>
Antiproliferative activity against human 22Rv1 cells after 96 hrs by propidium iodide staining based fluorescence 2D monolayer assay

> <document_journal>
Eur J Med Chem

> <molecule_chembl_id>
CHEMBL4535759

> <standard_value>
35540

> <IC50_uM>
35.54

> <Activity>
No

> <Canonical_Smiles>
CC(O)(COc1ccc(F)c(F)c1)C(=O)Nc1ccc(C#N)c(C(F)(F)F)c1

$$$$

  SciTegic03142313312D

 32 33  0  0  0  0            999 V2000
    5.1937   -3.0093    0.0000 C   0  0
    3.8933   -3.7570    0.0000 C   0  0  3  0  0  0
    3.8962   -2.2570    0.0000 O   0  0
    2.5951   -3.0039    0.0000 C   0  0
    2.5973   -1.5031    0.0000 S   0  0
    1.2990   -0.7500    0.0000 C   0  0
    1.2990    0.7500    0.0000 C   0  0
    0.0000    1.5000    0.0000 C   0  0
   -1.2990    0.7500    0.0000 C   0  0
   -2.6003    1.4977    0.0000 O   0  0
   -3.8990    0.7455    0.0000 C   0  0
   -5.1996    1.4928    0.0000 F   0  0
   -3.8964   -0.7545    0.0000 F   0  0
   -5.1966   -0.0070    0.0000 F   0  0
   -1.2990   -0.7500    0.0000 C   0  0
    0.0000   -1.5000    0.0000 C   0  0
    3.8912   -5.2578    0.0000 C   0  0
    2.5909   -6.0056    0.0000 O   0  0
    5.1894   -6.0109    0.0000 N   0  0
    5.1873   -7.5117    0.0000 C   0  0
    3.8856   -8.2573    0.0000 C   0  0
    3.8804   -9.7573    0.0000 C   0  0
    5.1769  -10.5118    0.0000 C   0  0
    5.1748  -12.0126    0.0000 N   0  3
    6.4723  -12.7653    0.0000 O   0  0
    3.8745  -12.7604    0.0000 O   0  5
    6.4785   -9.7663    0.0000 C   0  0
    6.4837   -8.2663    0.0000 C   0  0
    7.7860   -7.5204    0.0000 C   0  0
    9.0829   -8.2741    0.0000 F   0  0
    7.7908   -6.0204    0.0000 F   0  0
    9.0873   -6.7743    0.0000 F   0  0
  2  1  1  4
  2  3  1  0
  2  4  1  0
  4  5  1  0
  5  6  1  0
  6  7  2  0
  7  8  1  0
  8  9  2  0
  9 10  1  0
 10 11  1  0
 11 12  1  0
 11 13  1  0
 11 14  1  0
  9 15  1  0
 15 16  2  0
 16  6  1  0
  2 17  1  0
 17 18  2  0
 17 19  1  0
 19 20  1  0
 20 21  2  0
 21 22  1  0
 22 23  2  0
 23 24  1  0
 24 25  2  0
 24 26  1  0
 23 27  1  0
 27 28  2  0
 28 20  1  0
 28 29  1  0
 29 30  1  0
 29 31  1  0
 29 32  1  0
M  CHG  2  24   1  26  -1
M  END
> <assay_chembl_id>
CHEMBL4477863

> <assay_description>
Antiproliferative activity against human 22Rv1 cells after 96 hrs by propidium iodide staining based fluorescence 2D monolayer assay

> <document_journal>
Eur J Med Chem

> <molecule_chembl_id>
CHEMBL4584644

> <standard_value>
61920

> <IC50_uM>
61.92

> <Activity>
No

> <Canonical_Smiles>
CC(O)(CSc1ccc(OC(F)(F)F)cc1)C(=O)Nc1ccc([N+](=O)[O-])cc1C(F)(F)F

$$$$

  SciTegic03142313312D

 29 30  0  0  0  0            999 V2000
    5.1937   -3.0093    0.0000 C   0  0
    3.8933   -3.7570    0.0000 C   0  0  3  0  0  0
    3.8962   -2.2570    0.0000 O   0  0
    2.5951   -3.0039    0.0000 C   0  0
    2.5973   -1.5031    0.0000 S   0  0
    1.2990   -0.7500    0.0000 C   0  0
    1.2990    0.7500    0.0000 C   0  0
    0.0000    1.5000    0.0000 C   0  0
   -1.2990    0.7500    0.0000 C   0  0
   -2.5981    1.5000    0.0000 F   0  0
   -1.2990   -0.7500    0.0000 C   0  0
   -2.5981   -1.5000    0.0000 F   0  0
    0.0000   -1.5000    0.0000 C   0  0
    3.8912   -5.2578    0.0000 C   0  0
    2.5909   -6.0056    0.0000 O   0  0
    5.1894   -6.0109    0.0000 N   0  0
    5.1873   -7.5117    0.0000 C   0  0
    3.8856   -8.2573    0.0000 C   0  0
    3.8804   -9.7573    0.0000 C   0  0
    5.1769  -10.5118    0.0000 C   0  0
    5.1748  -12.0126    0.0000 N   0  3
    6.4723  -12.7653    0.0000 O   0  0
    3.8745  -12.7604    0.0000 O   0  5
    6.4785   -9.7663    0.0000 C   0  0
    6.4837   -8.2663    0.0000 C   0  0
    7.7860   -7.5204    0.0000 C   0  0
    9.0829   -8.2741    0.0000 F   0  0
    7.7908   -6.0204    0.0000 F   0  0
    9.0873   -6.7743    0.0000 F   0  0
  2  1  1  4
  2  3  1  0
  2  4  1  0
  4  5  1  0
  5  6  1  0
  6  7  2  0
  7  8  1  0
  8  9  2  0
  9 10  1  0
  9 11  1  0
 11 12  1  0
 11 13  2  0
 13  6  1  0
  2 14  1  0
 14 15  2  0
 14 16  1  0
 16 17  1  0
 17 18  2  0
 18 19  1  0
 19 20  2  0
 20 21  1  0
 21 22  2  0
 21 23  1  0
 20 24  1  0
 24 25  2  0
 25 17  1  0
 25 26  1  0
 26 27  1  0
 26 28  1  0
 26 29  1  0
M  CHG  2  21   1  23  -1
M  END
> <assay_chembl_id>
CHEMBL4477863

> <assay_description>
Antiproliferative activity against human 22Rv1 cells after 96 hrs by propidium iodide staining based fluorescence 2D monolayer assay

> <document_journal>
Eur J Med Chem

> <molecule_chembl_id>
CHEMBL4549796

> <standard_value>
83590

> <IC50_uM>
83.59

> <Activity>
No

> <Canonical_Smiles>
CC(O)(CSc1ccc(F)c(F)c1)C(=O)Nc1ccc([N+](=O)[O-])cc1C(F)(F)F

$$$$

  SciTegic03142313312D

 27 28  0  0  0  0            999 V2000
    5.1937   -3.0093    0.0000 C   0  0
    3.8933   -3.7570    0.0000 C   0  0  3  0  0  0
    3.8962   -2.2570    0.0000 O   0  0
    2.5951   -3.0039    0.0000 C   0  0
    2.5973   -1.5031    0.0000 S   0  0
    1.2990   -0.7500    0.0000 C   0  0
    1.2990    0.7500    0.0000 C   0  0
    0.0000    1.5000    0.0000 C   0  0
   -1.2990    0.7500    0.0000 C   0  0
   -2.5981    1.5000    0.0000 F   0  0
   -1.2990   -0.7500    0.0000 C   0  0
    0.0000   -1.5000    0.0000 C   0  0
    3.8912   -5.2578    0.0000 C   0  0
    2.5909   -6.0056    0.0000 O   0  0
    5.1894   -6.0109    0.0000 N   0  0
    5.1873   -7.5117    0.0000 C   0  0
    3.8856   -8.2573    0.0000 C   0  0
    3.8804   -9.7573    0.0000 C   0  0
    5.1769  -10.5118    0.0000 C   0  0
    5.1717  -12.0126    0.0000 C   0  0
    5.1665  -13.5126    0.0000 N   0  0
    6.4785   -9.7663    0.0000 C   0  0
    6.4837   -8.2663    0.0000 C   0  0
    7.7860   -7.5204    0.0000 C   0  0
    9.0829   -8.2741    0.0000 F   0  0
    7.7908   -6.0204    0.0000 F   0  0
    9.0873   -6.7743    0.0000 F   0  0
  2  1  1  4
  2  3  1  0
  2  4  1  0
  4  5  1  0
  5  6  1  0
  6  7  2  0
  7  8  1  0
  8  9  2  0
  9 10  1  0
  9 11  1  0
 11 12  2  0
 12  6  1  0
  2 13  1  0
 13 14  2  0
 13 15  1  0
 15 16  1  0
 16 17  2  0
 17 18  1  0
 18 19  2  0
 19 20  1  0
 20 21  3  0
 19 22  1  0
 22 23  2  0
 23 16  1  0
 23 24  1  0
 24 25  1  0
 24 26  1  0
 24 27  1  0
M  END
> <assay_chembl_id>
CHEMBL4477863

> <assay_description>
Antiproliferative activity against human 22Rv1 cells after 96 hrs by propidium iodide staining based fluorescence 2D monolayer assay

> <document_journal>
Eur J Med Chem

> <molecule_chembl_id>
CHEMBL4557725

> <standard_value>
30080

> <IC50_uM>
30.08

> <Activity>
No

> <Canonical_Smiles>
CC(O)(CSc1ccc(F)cc1)C(=O)Nc1ccc(C#N)cc1C(F)(F)F

$$$$

  SciTegic03142313312D

 30 31  0  0  0  0            999 V2000
    5.1937   -3.0093    0.0000 C   0  0
    3.8933   -3.7570    0.0000 C   0  0  3  0  0  0
    3.8962   -2.2570    0.0000 O   0  0
    2.5951   -3.0039    0.0000 C   0  0
    2.5973   -1.5031    0.0000 S   0  0
    1.2990   -0.7500    0.0000 C   0  0
    1.2990    0.7500    0.0000 C   0  0
    0.0000    1.5000    0.0000 C   0  0
   -1.2990    0.7500    0.0000 C   0  0
   -2.5988    1.5004    0.0000 C   0  0
   -2.5998    3.0004    0.0000 F   0  0
   -3.8976    0.7500    0.0000 F   0  0
   -3.8982    2.2498    0.0000 F   0  0
   -1.2990   -0.7500    0.0000 C   0  0
    0.0000   -1.5000    0.0000 N   0  0
    3.8912   -5.2578    0.0000 C   0  0
    2.5909   -6.0056    0.0000 O   0  0
    5.1894   -6.0109    0.0000 N   0  0
    5.1873   -7.5117    0.0000 C   0  0
    6.4837   -8.2663    0.0000 C   0  0
    6.4785   -9.7663    0.0000 C   0  0
    5.1769  -10.5118    0.0000 C   0  0
    5.1717  -12.0126    0.0000 C   0  0
    5.1665  -13.5126    0.0000 N   0  0
    3.8804   -9.7573    0.0000 C   0  0
    2.5781  -10.5032    0.0000 C   0  0
    2.5720  -12.0032    0.0000 F   0  0
    1.2819   -9.7483    0.0000 F   0  0
    1.2761  -11.2481    0.0000 F   0  0
    3.8856   -8.2573    0.0000 C   0  0
  2  1  1  4
  2  3  1  0
  2  4  1  0
  4  5  1  0
  5  6  1  0
  6  7  2  0
  7  8  1  0
  8  9  2  0
  9 10  1  0
 10 11  1  0
 10 12  1  0
 10 13  1  0
  9 14  1  0
 14 15  2  0
 15  6  1  0
  2 16  1  0
 16 17  2  0
 16 18  1  0
 18 19  1  0
 19 20  2  0
 20 21  1  0
 21 22  2  0
 22 23  1  0
 23 24  3  0
 22 25  1  0
 25 26  1  0
 26 27  1  0
 26 28  1  0
 26 29  1  0
 25 30  2  0
 30 19  1  0
M  END
> <assay_chembl_id>
CHEMBL4477863

> <assay_description>
Antiproliferative activity against human 22Rv1 cells after 96 hrs by propidium iodide staining based fluorescence 2D monolayer assay

> <document_journal>
Eur J Med Chem

> <molecule_chembl_id>
CHEMBL4558409

> <standard_value>
53910

> <IC50_uM>
53.91

> <Activity>
No

> <Canonical_Smiles>
CC(O)(CSc1ccc(C(F)(F)F)cn1)C(=O)Nc1ccc(C#N)c(C(F)(F)F)c1

$$$$

  SciTegic03142313312D

 31 32  0  0  0  0            999 V2000
    5.1937   -3.0093    0.0000 C   0  0
    3.8933   -3.7570    0.0000 C   0  0  3  0  0  0
    3.8962   -2.2570    0.0000 O   0  0
    2.5951   -3.0039    0.0000 C   0  0
    2.5973   -1.5031    0.0000 S   0  0
    1.2990   -0.7500    0.0000 C   0  0
    1.2990    0.7500    0.0000 C   0  0
    0.0000    1.5000    0.0000 C   0  0
   -1.2990    0.7500    0.0000 C   0  0
   -2.6003    1.4977    0.0000 O   0  0
   -3.8990    0.7455    0.0000 C   0  0
   -5.1996    1.4928    0.0000 F   0  0
   -3.8964   -0.7545    0.0000 F   0  0
   -5.1966   -0.0070    0.0000 F   0  0
   -1.2990   -0.7500    0.0000 C   0  0
    0.0000   -1.5000    0.0000 C   0  0
    3.8912   -5.2578    0.0000 C   0  0
    2.5909   -6.0056    0.0000 O   0  0
    5.1894   -6.0109    0.0000 N   0  0
    5.1873   -7.5117    0.0000 C   0  0
    6.4837   -8.2663    0.0000 C   0  0
    6.4785   -9.7663    0.0000 C   0  0
    5.1769  -10.5118    0.0000 C   0  0
    5.1717  -12.0126    0.0000 C   0  0
    5.1665  -13.5126    0.0000 N   0  0
    3.8804   -9.7573    0.0000 C   0  0
    2.5781  -10.5032    0.0000 C   0  0
    2.5720  -12.0032    0.0000 F   0  0
    1.2819   -9.7483    0.0000 F   0  0
    1.2761  -11.2481    0.0000 F   0  0
    3.8856   -8.2573    0.0000 C   0  0
  2  1  1  4
  2  3  1  0
  2  4  1  0
  4  5  1  0
  5  6  1  0
  6  7  2  0
  7  8  1  0
  8  9  2  0
  9 10  1  0
 10 11  1  0
 11 12  1  0
 11 13  1  0
 11 14  1  0
  9 15  1  0
 15 16  2  0
 16  6  1  0
  2 17  1  0
 17 18  2  0
 17 19  1  0
 19 20  1  0
 20 21  2  0
 21 22  1  0
 22 23  2  0
 23 24  1  0
 24 25  3  0
 23 26  1  0
 26 27  1  0
 27 28  1  0
 27 29  1  0
 27 30  1  0
 26 31  2  0
 31 20  1  0
M  END
> <assay_chembl_id>
CHEMBL4477863

> <assay_description>
Antiproliferative activity against human 22Rv1 cells after 96 hrs by propidium iodide staining based fluorescence 2D monolayer assay

> <document_journal>
Eur J Med Chem

> <molecule_chembl_id>
CHEMBL4532191

> <standard_value>
46620

> <IC50_uM>
46.62

> <Activity>
No

> <Canonical_Smiles>
CC(O)(CSc1ccc(OC(F)(F)F)cc1)C(=O)Nc1ccc(C#N)c(C(F)(F)F)c1

$$$$

  SciTegic03142313312D

 28 29  0  0  0  0            999 V2000
    5.1937   -3.0093    0.0000 C   0  0
    3.8933   -3.7570    0.0000 C   0  0  3  0  0  0
    3.8962   -2.2570    0.0000 O   0  0
    2.5951   -3.0039    0.0000 C   0  0
    2.5973   -1.5031    0.0000 O   0  0
    1.2990   -0.7500    0.0000 C   0  0
    1.2990    0.7500    0.0000 C   0  0
    0.0000    1.5000    0.0000 C   0  0
   -1.2990    0.7500    0.0000 C   0  0
   -2.5988    1.5004    0.0000 C   0  0
   -3.8978    2.2504    0.0000 N   0  0
   -1.2990   -0.7500    0.0000 C   0  0
    0.0000   -1.5000    0.0000 C   0  0
    3.8912   -5.2578    0.0000 C   0  0
    2.5909   -6.0056    0.0000 O   0  0
    5.1894   -6.0109    0.0000 N   0  0
    5.1873   -7.5117    0.0000 C   0  0
    3.8856   -8.2573    0.0000 C   0  0
    3.8804   -9.7573    0.0000 C   0  0
    5.1769  -10.5118    0.0000 C   0  0
    5.1717  -12.0126    0.0000 C   0  0
    5.1665  -13.5126    0.0000 N   0  0
    6.4785   -9.7663    0.0000 C   0  0
    6.4837   -8.2663    0.0000 C   0  0
    7.7860   -7.5204    0.0000 C   0  0
    9.0829   -8.2741    0.0000 F   0  0
    7.7908   -6.0204    0.0000 F   0  0
    9.0873   -6.7743    0.0000 F   0  0
  2  1  1  4
  2  3  1  0
  2  4  1  0
  4  5  1  0
  5  6  1  0
  6  7  2  0
  7  8  1  0
  8  9  2  0
  9 10  1  0
 10 11  3  0
  9 12  1  0
 12 13  2  0
 13  6  1  0
  2 14  1  0
 14 15  2  0
 14 16  1  0
 16 17  1  0
 17 18  2  0
 18 19  1  0
 19 20  2  0
 20 21  1  0
 21 22  3  0
 20 23  1  0
 23 24  2  0
 24 17  1  0
 24 25  1  0
 25 26  1  0
 25 27  1  0
 25 28  1  0
M  END
> <assay_chembl_id>
CHEMBL4477863

> <assay_description>
Antiproliferative activity against human 22Rv1 cells after 96 hrs by propidium iodide staining based fluorescence 2D monolayer assay

> <document_journal>
Eur J Med Chem

> <molecule_chembl_id>
CHEMBL4578937

> <standard_value>
42935

> <IC50_uM>
42.935

> <Activity>
No

> <Canonical_Smiles>
CC(O)(COc1ccc(C#N)cc1)C(=O)Nc1ccc(C#N)cc1C(F)(F)F

$$$$

  SciTegic03142313312D

 28 29  0  0  0  0            999 V2000
    5.1937   -3.0093    0.0000 C   0  0
    3.8933   -3.7570    0.0000 C   0  0  3  0  0  0
    3.8962   -2.2570    0.0000 O   0  0
    2.5951   -3.0039    0.0000 C   0  0
    2.5973   -1.5031    0.0000 O   0  0
    1.2990   -0.7500    0.0000 C   0  0
    1.2990    0.7500    0.0000 C   0  0
    0.0000    1.5000    0.0000 C   0  0
   -1.2990    0.7500    0.0000 C   0  0
   -2.5981    1.5000    0.0000 F   0  0
   -1.2990   -0.7500    0.0000 C   0  0
   -2.5981   -1.5000    0.0000 F   0  0
    0.0000   -1.5000    0.0000 C   0  0
    3.8912   -5.2578    0.0000 C   0  0
    2.5909   -6.0056    0.0000 O   0  0
    5.1894   -6.0109    0.0000 N   0  0
    5.1873   -7.5117    0.0000 C   0  0
    3.8856   -8.2573    0.0000 C   0  0
    3.8804   -9.7573    0.0000 C   0  0
    5.1769  -10.5118    0.0000 C   0  0
    5.1717  -12.0126    0.0000 C   0  0
    5.1665  -13.5126    0.0000 N   0  0
    6.4785   -9.7663    0.0000 C   0  0
    6.4837   -8.2663    0.0000 C   0  0
    7.7860   -7.5204    0.0000 C   0  0
    9.0829   -8.2741    0.0000 F   0  0
    7.7908   -6.0204    0.0000 F   0  0
    9.0873   -6.7743    0.0000 F   0  0
  2  1  1  4
  2  3  1  0
  2  4  1  0
  4  5  1  0
  5  6  1  0
  6  7  2  0
  7  8  1  0
  8  9  2  0
  9 10  1  0
  9 11  1  0
 11 12  1  0
 11 13  2  0
 13  6  1  0
  2 14  1  0
 14 15  2  0
 14 16  1  0
 16 17  1  0
 17 18  2  0
 18 19  1  0
 19 20  2  0
 20 21  1  0
 21 22  3  0
 20 23  1  0
 23 24  2  0
 24 17  1  0
 24 25  1  0
 25 26  1  0
 25 27  1  0
 25 28  1  0
M  END
> <assay_chembl_id>
CHEMBL4477863

> <assay_description>
Antiproliferative activity against human 22Rv1 cells after 96 hrs by propidium iodide staining based fluorescence 2D monolayer assay

> <document_journal>
Eur J Med Chem

> <molecule_chembl_id>
CHEMBL4583013

> <standard_value>
37030

> <IC50_uM>
37.03

> <Activity>
No

> <Canonical_Smiles>
CC(O)(COc1ccc(F)c(F)c1)C(=O)Nc1ccc(C#N)cc1C(F)(F)F

$$$$

  SciTegic03142313312D

 28 29  0  0  0  0            999 V2000
    5.2029   -2.9932    0.0000 C   0  0
    5.2003   -1.4932    0.0000 C   0  0  3  0  0  0
    3.9027   -2.2457    0.0000 O   0  0
    3.8990   -0.7455    0.0000 C   0  0
    2.6003   -1.4977    0.0000 O   0  0
    1.2990   -0.7500    0.0000 C   0  0
    1.2990    0.7500    0.0000 C   0  0
    0.0000    1.5000    0.0000 C   0  0
   -1.2990    0.7500    0.0000 C   0  0
   -2.5981    1.5000    0.0000 F   0  0
   -1.2990   -0.7500    0.0000 C   0  0
    0.0000   -1.5000    0.0000 C   0  0
    0.0000   -3.0000    0.0000 F   0  0
    6.4990   -0.7409    0.0000 C   0  0
    6.4964    0.7591    0.0000 O   0  0
    7.8003   -1.4887    0.0000 N   0  0
    9.0990   -0.7364    0.0000 C   0  0
    9.0939    0.7637    0.0000 C   0  0
   10.3903    1.5181    0.0000 C   0  0
   11.6919    0.7726    0.0000 C   0  0
   12.9891    1.5275    0.0000 C   0  0
   14.2855    2.2820    0.0000 N   0  0
   11.6971   -0.7274    0.0000 C   0  0
   10.4007   -1.4818    0.0000 C   0  0
   10.4059   -2.9827    0.0000 C   0  0
   11.7071   -3.7289    0.0000 F   0  0
    9.1093   -3.7368    0.0000 F   0  0
   10.4104   -4.4827    0.0000 F   0  0
  2  1  1  4
  2  3  1  0
  2  4  1  0
  4  5  1  0
  5  6  1  0
  6  7  2  0
  7  8  1  0
  8  9  2  0
  9 10  1  0
  9 11  1  0
 11 12  2  0
 12  6  1  0
 12 13  1  0
  2 14  1  0
 14 15  2  0
 14 16  1  0
 16 17  1  0
 17 18  2  0
 18 19  1  0
 19 20  2  0
 20 21  1  0
 21 22  3  0
 20 23  1  0
 23 24  2  0
 24 17  1  0
 24 25  1  0
 25 26  1  0
 25 27  1  0
 25 28  1  0
M  END
> <assay_chembl_id>
CHEMBL4477863

> <assay_description>
Antiproliferative activity against human 22Rv1 cells after 96 hrs by propidium iodide staining based fluorescence 2D monolayer assay

> <document_journal>
Eur J Med Chem

> <molecule_chembl_id>
CHEMBL4579902

> <standard_value>
60920

> <IC50_uM>
60.92

> <Activity>
No

> <Canonical_Smiles>
CC(O)(COc1ccc(F)cc1F)C(=O)Nc1ccc(C#N)cc1C(F)(F)F

$$$$

  SciTegic03142313312D

 31 32  0  0  0  0            999 V2000
    5.1937   -3.0093    0.0000 C   0  0
    3.8933   -3.7570    0.0000 C   0  0  3  0  0  0
    3.8962   -2.2570    0.0000 O   0  0
    2.5951   -3.0039    0.0000 C   0  0
    2.5973   -1.5031    0.0000 O   0  0
    1.2990   -0.7500    0.0000 C   0  0
    1.2990    0.7500    0.0000 C   0  0
    0.0000    1.5000    0.0000 C   0  0
   -1.2990    0.7500    0.0000 C   0  0
   -2.6003    1.4977    0.0000 O   0  0
   -3.8990    0.7455    0.0000 C   0  0
   -5.1996    1.4928    0.0000 F   0  0
   -3.8964   -0.7545    0.0000 F   0  0
   -5.1966   -0.0070    0.0000 F   0  0
   -1.2990   -0.7500    0.0000 C   0  0
    0.0000   -1.5000    0.0000 C   0  0
    3.8912   -5.2578    0.0000 C   0  0
    2.5909   -6.0056    0.0000 O   0  0
    5.1894   -6.0109    0.0000 N   0  0
    5.1873   -7.5117    0.0000 C   0  0
    3.8856   -8.2573    0.0000 C   0  0
    3.8804   -9.7573    0.0000 C   0  0
    5.1769  -10.5118    0.0000 C   0  0
    5.1717  -12.0126    0.0000 C   0  0
    5.1665  -13.5126    0.0000 N   0  0
    6.4785   -9.7663    0.0000 C   0  0
    6.4837   -8.2663    0.0000 C   0  0
    7.7860   -7.5204    0.0000 C   0  0
    9.0829   -8.2741    0.0000 F   0  0
    7.7908   -6.0204    0.0000 F   0  0
    9.0873   -6.7743    0.0000 F   0  0
  2  1  1  4
  2  3  1  0
  2  4  1  0
  4  5  1  0
  5  6  1  0
  6  7  2  0
  7  8  1  0
  8  9  2  0
  9 10  1  0
 10 11  1  0
 11 12  1  0
 11 13  1  0
 11 14  1  0
  9 15  1  0
 15 16  2  0
 16  6  1  0
  2 17  1  0
 17 18  2  0
 17 19  1  0
 19 20  1  0
 20 21  2  0
 21 22  1  0
 22 23  2  0
 23 24  1  0
 24 25  3  0
 23 26  1  0
 26 27  2  0
 27 20  1  0
 27 28  1  0
 28 29  1  0
 28 30  1  0
 28 31  1  0
M  END
> <assay_chembl_id>
CHEMBL4477863

> <assay_description>
Antiproliferative activity against human 22Rv1 cells after 96 hrs by propidium iodide staining based fluorescence 2D monolayer assay

> <document_journal>
Eur J Med Chem

> <molecule_chembl_id>
CHEMBL4560812

> <standard_value>
27990

> <IC50_uM>
27.99

> <Activity>
No

> <Canonical_Smiles>
CC(O)(COc1ccc(OC(F)(F)F)cc1)C(=O)Nc1ccc(C#N)cc1C(F)(F)F

$$$$

  SciTegic03142313312D

 31 32  0  0  0  0            999 V2000
    5.1937   -3.0093    0.0000 C   0  0
    3.8933   -3.7570    0.0000 C   0  0  3  0  0  0
    3.8962   -2.2570    0.0000 O   0  0
    2.5951   -3.0039    0.0000 C   0  0
    2.5973   -1.5031    0.0000 O   0  0
    1.2990   -0.7500    0.0000 C   0  0
    1.2990    0.7500    0.0000 C   0  0
    0.0000    1.5000    0.0000 C   0  0
   -1.2990    0.7500    0.0000 C   0  0
   -1.2990   -0.7500    0.0000 C   0  0
   -2.5972   -1.5031    0.0000 O   0  0
   -2.5951   -3.0039    0.0000 C   0  0
   -3.8926   -3.7566    0.0000 F   0  0
   -1.2948   -3.7517    0.0000 F   0  0
   -2.5923   -4.5039    0.0000 F   0  0
    0.0000   -1.5000    0.0000 C   0  0
    3.8912   -5.2578    0.0000 C   0  0
    2.5909   -6.0056    0.0000 O   0  0
    5.1894   -6.0109    0.0000 N   0  0
    5.1873   -7.5117    0.0000 C   0  0
    3.8856   -8.2573    0.0000 C   0  0
    3.8804   -9.7573    0.0000 C   0  0
    5.1769  -10.5118    0.0000 C   0  0
    5.1717  -12.0126    0.0000 C   0  0
    5.1665  -13.5126    0.0000 N   0  0
    6.4785   -9.7663    0.0000 C   0  0
    6.4837   -8.2663    0.0000 C   0  0
    7.7860   -7.5204    0.0000 C   0  0
    9.0829   -8.2741    0.0000 F   0  0
    7.7908   -6.0204    0.0000 F   0  0
    9.0873   -6.7743    0.0000 F   0  0
  2  1  1  4
  2  3  1  0
  2  4  1  0
  4  5  1  0
  5  6  1  0
  6  7  2  0
  7  8  1  0
  8  9  2  0
  9 10  1  0
 10 11  1  0
 11 12  1  0
 12 13  1  0
 12 14  1  0
 12 15  1  0
 10 16  2  0
 16  6  1  0
  2 17  1  0
 17 18  2  0
 17 19  1  0
 19 20  1  0
 20 21  2  0
 21 22  1  0
 22 23  2  0
 23 24  1  0
 24 25  3  0
 23 26  1  0
 26 27  2  0
 27 20  1  0
 27 28  1  0
 28 29  1  0
 28 30  1  0
 28 31  1  0
M  END
> <assay_chembl_id>
CHEMBL4477863

> <assay_description>
Antiproliferative activity against human 22Rv1 cells after 96 hrs by propidium iodide staining based fluorescence 2D monolayer assay

> <document_journal>
Eur J Med Chem

> <molecule_chembl_id>
CHEMBL4553533

> <standard_value>
28650

> <IC50_uM>
28.65

> <Activity>
No

> <Canonical_Smiles>
CC(O)(COc1cccc(OC(F)(F)F)c1)C(=O)Nc1ccc(C#N)cc1C(F)(F)F

$$$$

  SciTegic03142313312D

 29 30  0  0  0  0            999 V2000
    5.1937   -3.0093    0.0000 C   0  0
    3.8933   -3.7570    0.0000 C   0  0  3  0  0  0
    3.8962   -2.2570    0.0000 O   0  0
    2.5951   -3.0039    0.0000 C   0  0
    2.5973   -1.5031    0.0000 O   0  0
    1.2990   -0.7500    0.0000 C   0  0
    1.2990    0.7500    0.0000 C   0  0
    0.0000    1.5000    0.0000 C   0  0
   -1.2990    0.7500    0.0000 C   0  0
   -2.5988    1.5004    0.0000 C   0  0
   -3.8978    2.2504    0.0000 N   0  0
   -1.2990   -0.7500    0.0000 C   0  0
   -2.5981   -1.5000    0.0000 F   0  0
    0.0000   -1.5000    0.0000 C   0  0
    3.8912   -5.2578    0.0000 C   0  0
    2.5909   -6.0056    0.0000 O   0  0
    5.1894   -6.0109    0.0000 N   0  0
    5.1873   -7.5117    0.0000 C   0  0
    3.8856   -8.2573    0.0000 C   0  0
    3.8804   -9.7573    0.0000 C   0  0
    5.1769  -10.5118    0.0000 C   0  0
    5.1717  -12.0126    0.0000 C   0  0
    5.1665  -13.5126    0.0000 N   0  0
    6.4785   -9.7663    0.0000 C   0  0
    6.4837   -8.2663    0.0000 C   0  0
    7.7860   -7.5204    0.0000 C   0  0
    9.0829   -8.2741    0.0000 F   0  0
    7.7908   -6.0204    0.0000 F   0  0
    9.0873   -6.7743    0.0000 F   0  0
  2  1  1  4
  2  3  1  0
  2  4  1  0
  4  5  1  0
  5  6  1  0
  6  7  2  0
  7  8  1  0
  8  9  2  0
  9 10  1  0
 10 11  3  0
  9 12  1  0
 12 13  1  0
 12 14  2  0
 14  6  1  0
  2 15  1  0
 15 16  2  0
 15 17  1  0
 17 18  1  0
 18 19  2  0
 19 20  1  0
 20 21  2  0
 21 22  1  0
 22 23  3  0
 21 24  1  0
 24 25  2  0
 25 18  1  0
 25 26  1  0
 26 27  1  0
 26 28  1  0
 26 29  1  0
M  END
> <assay_chembl_id>
CHEMBL4477863

> <assay_description>
Antiproliferative activity against human 22Rv1 cells after 96 hrs by propidium iodide staining based fluorescence 2D monolayer assay

> <document_journal>
Eur J Med Chem

> <molecule_chembl_id>
CHEMBL4545276

> <standard_value>
45340

> <IC50_uM>
45.34

> <Activity>
No

> <Canonical_Smiles>
CC(O)(COc1ccc(C#N)c(F)c1)C(=O)Nc1ccc(C#N)cc1C(F)(F)F

$$$$

  SciTegic03142313312D

 30 31  0  0  0  0            999 V2000
    5.1937   -3.0093    0.0000 C   0  0
    3.8933   -3.7570    0.0000 C   0  0  3  0  0  0
    3.8962   -2.2570    0.0000 O   0  0
    2.5951   -3.0039    0.0000 C   0  0
    2.5973   -1.5031    0.0000 O   0  0
    1.2990   -0.7500    0.0000 C   0  0
    1.2990    0.7500    0.0000 C   0  0
    0.0000    1.5000    0.0000 C   0  0
   -1.2990    0.7500    0.0000 C   0  0
   -2.5988    1.5004    0.0000 C   0  0
   -2.5998    3.0004    0.0000 F   0  0
   -3.8976    0.7500    0.0000 F   0  0
   -3.8982    2.2498    0.0000 F   0  0
   -1.2990   -0.7500    0.0000 C   0  0
    0.0000   -1.5000    0.0000 N   0  0
    3.8912   -5.2578    0.0000 C   0  0
    2.5909   -6.0056    0.0000 O   0  0
    5.1894   -6.0109    0.0000 N   0  0
    5.1873   -7.5117    0.0000 C   0  0
    3.8856   -8.2573    0.0000 C   0  0
    3.8804   -9.7573    0.0000 C   0  0
    5.1769  -10.5118    0.0000 C   0  0
    5.1717  -12.0126    0.0000 C   0  0
    5.1665  -13.5126    0.0000 N   0  0
    6.4785   -9.7663    0.0000 C   0  0
    6.4837   -8.2663    0.0000 C   0  0
    7.7860   -7.5204    0.0000 C   0  0
    9.0829   -8.2741    0.0000 F   0  0
    7.7908   -6.0204    0.0000 F   0  0
    9.0873   -6.7743    0.0000 F   0  0
  2  1  1  4
  2  3  1  0
  2  4  1  0
  4  5  1  0
  5  6  1  0
  6  7  2  0
  7  8  1  0
  8  9  2  0
  9 10  1  0
 10 11  1  0
 10 12  1  0
 10 13  1  0
  9 14  1  0
 14 15  2  0
 15  6  1  0
  2 16  1  0
 16 17  2  0
 16 18  1  0
 18 19  1  0
 19 20  2  0
 20 21  1  0
 21 22  2  0
 22 23  1  0
 23 24  3  0
 22 25  1  0
 25 26  2  0
 26 19  1  0
 26 27  1  0
 27 28  1  0
 27 29  1  0
 27 30  1  0
M  END
> <assay_chembl_id>
CHEMBL4477863

> <assay_description>
Antiproliferative activity against human 22Rv1 cells after 96 hrs by propidium iodide staining based fluorescence 2D monolayer assay

> <document_journal>
Eur J Med Chem

> <molecule_chembl_id>
CHEMBL4518330

> <standard_value>
100000

> <IC50_uM>
100

> <Activity>
No

> <Canonical_Smiles>
CC(O)(COc1ccc(C(F)(F)F)cn1)C(=O)Nc1ccc(C#N)cc1C(F)(F)F

$$$$

  SciTegic03142313312D

 28 29  0  0  0  0            999 V2000
    5.1937   -3.0093    0.0000 C   0  0
    3.8933   -3.7570    0.0000 C   0  0  3  0  0  0
    3.8962   -2.2570    0.0000 O   0  0
    2.5951   -3.0039    0.0000 C   0  0
    2.5973   -1.5031    0.0000 O   0  0
    1.2990   -0.7500    0.0000 C   0  0
    1.2990    0.7500    0.0000 C   0  0
    0.0000    1.5000    0.0000 C   0  0
   -1.2990    0.7500    0.0000 C   0  0
   -1.2990   -0.7500    0.0000 C   0  0
   -2.5988   -1.5004    0.0000 C   0  0
   -3.8983   -0.7513    0.0000 F   0  0
   -2.5983   -3.0004    0.0000 F   0  0
   -3.8975   -2.2510    0.0000 F   0  0
    0.0000   -1.5000    0.0000 C   0  0
    3.8912   -5.2578    0.0000 C   0  0
    2.5909   -6.0056    0.0000 O   0  0
    5.1894   -6.0109    0.0000 N   0  0
    5.1873   -7.5117    0.0000 C   0  0
    6.4837   -8.2663    0.0000 C   0  0
    6.4785   -9.7663    0.0000 C   0  0
    5.1769  -10.5118    0.0000 C   0  0
    5.1717  -12.0126    0.0000 C   0  0
    6.4676  -12.7679    0.0000 F   0  0
    3.8698  -12.7577    0.0000 F   0  0
    5.1658  -13.5126    0.0000 F   0  0
    3.8804   -9.7573    0.0000 C   0  0
    3.8856   -8.2573    0.0000 C   0  0
  2  1  1  4
  2  3  1  0
  2  4  1  0
  4  5  1  0
  5  6  1  0
  6  7  2  0
  7  8  1  0
  8  9  2  0
  9 10  1  0
 10 11  1  0
 11 12  1  0
 11 13  1  0
 11 14  1  0
 10 15  2  0
 15  6  1  0
  2 16  1  0
 16 17  2  0
 16 18  1  0
 18 19  1  0
 19 20  2  0
 20 21  1  0
 21 22  2  0
 22 23  1  0
 23 24  1  0
 23 25  1  0
 23 26  1  0
 22 27  1  0
 27 28  2  0
 28 19  1  0
M  END
> <assay_chembl_id>
CHEMBL4477863

> <assay_description>
Antiproliferative activity against human 22Rv1 cells after 96 hrs by propidium iodide staining based fluorescence 2D monolayer assay

> <document_journal>
Eur J Med Chem

> <molecule_chembl_id>
CHEMBL4576882

> <standard_value>
25680

> <IC50_uM>
25.68

> <Activity>
No

> <Canonical_Smiles>
CC(O)(COc1cccc(C(F)(F)F)c1)C(=O)Nc1ccc(C(F)(F)F)cc1

$$$$

  SciTegic03142313312D

 32 33  0  0  0  0            999 V2000
    5.1983   -3.0012    0.0000 C   0  0
    5.1988   -1.5012    0.0000 C   0  0  3  0  0  0
    4.3327   -2.0011    0.0000 O   0  0
    3.8990   -0.7508    0.0000 C   0  0
    2.5988   -1.5004    0.0000 S   0  0
    2.5983   -3.0004    0.0000 O   0  0
    3.4646   -2.0008    0.0000 O   0  0
    1.2990   -0.7500    0.0000 C   0  0
    1.2990    0.7500    0.0000 C   0  0
    0.0000    1.5000    0.0000 C   0  0
   -1.2990    0.7500    0.0000 C   0  0
   -2.5988    1.5004    0.0000 C   0  0
   -2.5998    3.0004    0.0000 F   0  0
   -3.8976    0.7500    0.0000 F   0  0
   -3.8982    2.2498    0.0000 F   0  0
   -1.2990   -0.7500    0.0000 C   0  0
    0.0000   -1.5000    0.0000 C   0  0
    6.4990   -0.7516    0.0000 C   0  0
    6.4995    0.7484    0.0000 O   0  0
    7.7988   -1.5020    0.0000 N   0  0
    9.0990   -0.7525    0.0000 C   0  0
   10.3991   -1.5006    0.0000 C   0  0
   11.6971   -0.7487    0.0000 C   0  0
   11.6950    0.7512    0.0000 C   0  0
   12.9937    1.5035    0.0000 C   0  0
   14.2917    2.2553    0.0000 N   0  0
   10.3949    1.4994    0.0000 C   0  0
   10.3928    3.0003    0.0000 C   0  0
   11.6903    3.7529    0.0000 F   0  0
    9.0925    3.7480    0.0000 F   0  0
   10.3900    4.5002    0.0000 F   0  0
    9.0969    0.7476    0.0000 C   0  0
  2  1  1  4
  2  3  1  0
  2  4  1  0
  4  5  1  0
  5  6  2  0
  5  7  2  0
  5  8  1  0
  8  9  2  0
  9 10  1  0
 10 11  2  0
 11 12  1  0
 12 13  1  0
 12 14  1  0
 12 15  1  0
 11 16  1  0
 16 17  2  0
 17  8  1  0
  2 18  1  0
 18 19  2  0
 18 20  1  0
 20 21  1  0
 21 22  2  0
 22 23  1  0
 23 24  2  0
 24 25  1  0
 25 26  3  0
 24 27  1  0
 27 28  1  0
 28 29  1  0
 28 30  1  0
 28 31  1  0
 27 32  2  0
 32 21  1  0
M  END
> <assay_chembl_id>
CHEMBL4477863

> <assay_description>
Antiproliferative activity against human 22Rv1 cells after 96 hrs by propidium iodide staining based fluorescence 2D monolayer assay

> <document_journal>
Eur J Med Chem

> <molecule_chembl_id>
CHEMBL4552713

> <standard_value>
21540

> <IC50_uM>
21.54

> <Activity>
No

> <Canonical_Smiles>
CC(O)(CS(=O)(=O)c1ccc(C(F)(F)F)cc1)C(=O)Nc1ccc(C#N)c(C(F)(F)F)c1

$$$$

  SciTegic03142313312D

 32 33  0  0  0  0            999 V2000
    5.1983   -3.0012    0.0000 C   0  0
    5.1988   -1.5012    0.0000 C   0  0  3  0  0  0
    4.3327   -2.0011    0.0000 O   0  0
    3.8990   -0.7508    0.0000 C   0  0
    2.5988   -1.5004    0.0000 S   0  0
    2.5983   -3.0004    0.0000 O   0  0
    3.4646   -2.0008    0.0000 O   0  0
    1.2990   -0.7500    0.0000 C   0  0
    1.2990    0.7500    0.0000 C   0  0
    0.0000    1.5000    0.0000 C   0  0
   -1.2990    0.7500    0.0000 C   0  0
   -1.2990   -0.7500    0.0000 C   0  0
   -2.5988   -1.5004    0.0000 C   0  0
   -3.8983   -0.7513    0.0000 F   0  0
   -2.5983   -3.0004    0.0000 F   0  0
   -3.8975   -2.2510    0.0000 F   0  0
    0.0000   -1.5000    0.0000 C   0  0
    6.4990   -0.7516    0.0000 C   0  0
    6.4995    0.7484    0.0000 O   0  0
    7.7988   -1.5020    0.0000 N   0  0
    9.0990   -0.7525    0.0000 C   0  0
   10.3991   -1.5006    0.0000 C   0  0
   11.6971   -0.7487    0.0000 C   0  0
   11.6950    0.7512    0.0000 C   0  0
   12.9937    1.5035    0.0000 C   0  0
   14.2917    2.2553    0.0000 N   0  0
   10.3949    1.4994    0.0000 C   0  0
   10.3928    3.0003    0.0000 C   0  0
   11.6903    3.7529    0.0000 F   0  0
    9.0925    3.7480    0.0000 F   0  0
   10.3900    4.5002    0.0000 F   0  0
    9.0969    0.7476    0.0000 C   0  0
  2  1  1  4
  2  3  1  0
  2  4  1  0
  4  5  1  0
  5  6  2  0
  5  7  2  0
  5  8  1  0
  8  9  2  0
  9 10  1  0
 10 11  2  0
 11 12  1  0
 12 13  1  0
 13 14  1  0
 13 15  1  0
 13 16  1  0
 12 17  2  0
 17  8  1  0
  2 18  1  0
 18 19  2  0
 18 20  1  0
 20 21  1  0
 21 22  2  0
 22 23  1  0
 23 24  2  0
 24 25  1  0
 25 26  3  0
 24 27  1  0
 27 28  1  0
 28 29  1  0
 28 30  1  0
 28 31  1  0
 27 32  2  0
 32 21  1  0
M  END
> <assay_chembl_id>
CHEMBL4477863

> <assay_description>
Antiproliferative activity against human 22Rv1 cells after 96 hrs by propidium iodide staining based fluorescence 2D monolayer assay

> <document_journal>
Eur J Med Chem

> <molecule_chembl_id>
CHEMBL4585508

> <standard_value>
20954

> <IC50_uM>
20.954

> <Activity>
No

> <Canonical_Smiles>
CC(O)(CS(=O)(=O)c1cccc(C(F)(F)F)c1)C(=O)Nc1ccc(C#N)c(C(F)(F)F)c1

$$$$

  SciTegic03142313312D

 32 33  0  0  0  0            999 V2000
    5.1983   -3.0012    0.0000 C   0  0
    5.1988   -1.5012    0.0000 C   0  0  3  0  0  0
    4.3327   -2.0011    0.0000 O   0  0
    3.8990   -0.7508    0.0000 C   0  0
    2.5988   -1.5004    0.0000 S   0  0
    2.5983   -3.0004    0.0000 O   0  0
    3.4646   -2.0008    0.0000 O   0  0
    1.2990   -0.7500    0.0000 C   0  0
    1.2990    0.7500    0.0000 C   0  0
    0.0000    1.5000    0.0000 C   0  0
   -1.2990    0.7500    0.0000 C   0  0
   -1.2990   -0.7500    0.0000 C   0  0
    0.0000   -1.5000    0.0000 C   0  0
    0.0000   -3.0008    0.0000 C   0  0
   -1.2986   -3.7517    0.0000 F   0  0
    1.2993   -3.7504    0.0000 F   0  0
    0.0007   -4.5008    0.0000 F   0  0
    6.4990   -0.7516    0.0000 C   0  0
    6.4995    0.7484    0.0000 O   0  0
    7.7988   -1.5020    0.0000 N   0  0
    9.0990   -0.7525    0.0000 C   0  0
   10.3991   -1.5006    0.0000 C   0  0
   11.6971   -0.7487    0.0000 C   0  0
   11.6950    0.7512    0.0000 C   0  0
   12.9937    1.5035    0.0000 C   0  0
   14.2917    2.2553    0.0000 N   0  0
   10.3949    1.4994    0.0000 C   0  0
   10.3928    3.0003    0.0000 C   0  0
   11.6903    3.7529    0.0000 F   0  0
    9.0925    3.7480    0.0000 F   0  0
   10.3900    4.5002    0.0000 F   0  0
    9.0969    0.7476    0.0000 C   0  0
  2  1  1  4
  2  3  1  0
  2  4  1  0
  4  5  1  0
  5  6  2  0
  5  7  2  0
  5  8  1  0
  8  9  2  0
  9 10  1  0
 10 11  2  0
 11 12  1  0
 12 13  2  0
 13  8  1  0
 13 14  1  0
 14 15  1  0
 14 16  1  0
 14 17  1  0
  2 18  1  0
 18 19  2  0
 18 20  1  0
 20 21  1  0
 21 22  2  0
 22 23  1  0
 23 24  2  0
 24 25  1  0
 25 26  3  0
 24 27  1  0
 27 28  1  0
 28 29  1  0
 28 30  1  0
 28 31  1  0
 27 32  2  0
 32 21  1  0
M  END
> <assay_chembl_id>
CHEMBL4477863

> <assay_description>
Antiproliferative activity against human 22Rv1 cells after 96 hrs by propidium iodide staining based fluorescence 2D monolayer assay

> <document_journal>
Eur J Med Chem

> <molecule_chembl_id>
CHEMBL4543957

> <standard_value>
46550

> <IC50_uM>
46.55

> <Activity>
No

> <Canonical_Smiles>
CC(O)(CS(=O)(=O)c1ccccc1C(F)(F)F)C(=O)Nc1ccc(C#N)c(C(F)(F)F)c1

$$$$

  SciTegic03142313312D

 32 33  0  0  0  0            999 V2000
    5.1983   -3.0012    0.0000 C   0  0
    5.1988   -1.5012    0.0000 C   0  0  3  0  0  0
    4.3327   -2.0011    0.0000 O   0  0
    3.8990   -0.7508    0.0000 C   0  0
    2.5988   -1.5004    0.0000 S   0  0
    2.5983   -3.0004    0.0000 O   0  0
    3.4646   -2.0008    0.0000 O   0  0
    1.2990   -0.7500    0.0000 C   0  0
    1.2990    0.7500    0.0000 C   0  0
    0.0000    1.5000    0.0000 C   0  0
   -1.2990    0.7500    0.0000 C   0  0
   -2.5988    1.5004    0.0000 C   0  0
   -2.5998    3.0004    0.0000 F   0  0
   -3.8976    0.7500    0.0000 F   0  0
   -3.8982    2.2498    0.0000 F   0  0
   -1.2990   -0.7500    0.0000 C   0  0
    0.0000   -1.5000    0.0000 N   0  0
    6.4990   -0.7516    0.0000 C   0  0
    6.4995    0.7484    0.0000 O   0  0
    7.7988   -1.5020    0.0000 N   0  0
    9.0990   -0.7525    0.0000 C   0  0
   10.3991   -1.5006    0.0000 C   0  0
   11.6971   -0.7487    0.0000 C   0  0
   11.6950    0.7512    0.0000 C   0  0
   12.9937    1.5035    0.0000 C   0  0
   14.2917    2.2553    0.0000 N   0  0
   10.3949    1.4994    0.0000 C   0  0
   10.3928    3.0003    0.0000 C   0  0
   11.6903    3.7529    0.0000 F   0  0
    9.0925    3.7480    0.0000 F   0  0
   10.3900    4.5002    0.0000 F   0  0
    9.0969    0.7476    0.0000 C   0  0
  2  1  1  4
  2  3  1  0
  2  4  1  0
  4  5  1  0
  5  6  2  0
  5  7  2  0
  5  8  1  0
  8  9  2  0
  9 10  1  0
 10 11  2  0
 11 12  1  0
 12 13  1  0
 12 14  1  0
 12 15  1  0
 11 16  1  0
 16 17  2  0
 17  8  1  0
  2 18  1  0
 18 19  2  0
 18 20  1  0
 20 21  1  0
 21 22  2  0
 22 23  1  0
 23 24  2  0
 24 25  1  0
 25 26  3  0
 24 27  1  0
 27 28  1  0
 28 29  1  0
 28 30  1  0
 28 31  1  0
 27 32  2  0
 32 21  1  0
M  END
> <assay_chembl_id>
CHEMBL4477863

> <assay_description>
Antiproliferative activity against human 22Rv1 cells after 96 hrs by propidium iodide staining based fluorescence 2D monolayer assay

> <document_journal>
Eur J Med Chem

> <molecule_chembl_id>
CHEMBL4551595

> <standard_value>
100000

> <IC50_uM>
100

> <Activity>
No

> <Canonical_Smiles>
CC(O)(CS(=O)(=O)c1ccc(C(F)(F)F)cn1)C(=O)Nc1ccc(C#N)c(C(F)(F)F)c1

$$$$

  SciTegic03142313312D

 29 30  0  0  0  0            999 V2000
    5.1983   -3.0012    0.0000 C   0  0
    5.1988   -1.5012    0.0000 C   0  0  3  0  0  0
    4.3327   -2.0011    0.0000 O   0  0
    3.8990   -0.7508    0.0000 C   0  0
    2.5988   -1.5004    0.0000 S   0  0
    2.5983   -3.0004    0.0000 O   0  0
    3.4646   -2.0008    0.0000 O   0  0
    1.2990   -0.7500    0.0000 C   0  0
    1.2990    0.7500    0.0000 C   0  0
    0.0000    1.5000    0.0000 C   0  0
   -1.2990    0.7500    0.0000 C   0  0
   -2.5981    1.5000    0.0000 F   0  0
   -1.2990   -0.7500    0.0000 C   0  0
    0.0000   -1.5000    0.0000 C   0  0
    6.4990   -0.7516    0.0000 C   0  0
    6.4995    0.7484    0.0000 O   0  0
    7.7988   -1.5020    0.0000 N   0  0
    9.0990   -0.7525    0.0000 C   0  0
    9.0969    0.7476    0.0000 C   0  0
   10.3949    1.4994    0.0000 C   0  0
   11.6950    0.7512    0.0000 C   0  0
   12.9937    1.5035    0.0000 C   0  0
   14.2917    2.2553    0.0000 N   0  0
   11.6971   -0.7488    0.0000 C   0  0
   10.3991   -1.5006    0.0000 C   0  0
   10.4013   -3.0014    0.0000 C   0  0
   11.7009   -3.7504    0.0000 F   0  0
    9.1031   -3.7528    0.0000 F   0  0
   10.4027   -4.5014    0.0000 F   0  0
  2  1  1  4
  2  3  1  0
  2  4  1  0
  4  5  1  0
  5  6  2  0
  5  7  2  0
  5  8  1  0
  8  9  2  0
  9 10  1  0
 10 11  2  0
 11 12  1  0
 11 13  1  0
 13 14  2  0
 14  8  1  0
  2 15  1  0
 15 16  2  0
 15 17  1  0
 17 18  1  0
 18 19  2  0
 19 20  1  0
 20 21  2  0
 21 22  1  0
 22 23  3  0
 21 24  1  0
 24 25  2  0
 25 18  1  0
 25 26  1  0
 26 27  1  0
 26 28  1  0
 26 29  1  0
M  END
> <assay_chembl_id>
CHEMBL4477863

> <assay_description>
Antiproliferative activity against human 22Rv1 cells after 96 hrs by propidium iodide staining based fluorescence 2D monolayer assay

> <document_journal>
Eur J Med Chem

> <molecule_chembl_id>
CHEMBL4581759

> <standard_value>
77000

> <IC50_uM>
77

> <Activity>
No

> <Canonical_Smiles>
CC(O)(CS(=O)(=O)c1ccc(F)cc1)C(=O)Nc1ccc(C#N)cc1C(F)(F)F

$$$$

  SciTegic03142313312D

 32 33  0  0  0  0            999 V2000
    5.1983   -3.0012    0.0000 C   0  0
    5.1988   -1.5012    0.0000 C   0  0  3  0  0  0
    4.3327   -2.0011    0.0000 O   0  0
    3.8990   -0.7508    0.0000 C   0  0
    2.5988   -1.5004    0.0000 S   0  0
    2.5983   -3.0004    0.0000 O   0  0
    3.4646   -2.0008    0.0000 O   0  0
    1.2990   -0.7500    0.0000 C   0  0
    1.2990    0.7500    0.0000 C   0  0
    0.0000    1.5000    0.0000 C   0  0
   -1.2990    0.7500    0.0000 C   0  0
   -2.5988    1.5004    0.0000 C   0  0
   -2.5998    3.0004    0.0000 F   0  0
   -3.8976    0.7500    0.0000 F   0  0
   -3.8982    2.2498    0.0000 F   0  0
   -1.2990   -0.7500    0.0000 C   0  0
    0.0000   -1.5000    0.0000 C   0  0
    6.4990   -0.7516    0.0000 C   0  0
    6.4995    0.7484    0.0000 O   0  0
    7.7988   -1.5020    0.0000 N   0  0
    9.0990   -0.7525    0.0000 C   0  0
    9.0969    0.7476    0.0000 C   0  0
   10.3949    1.4994    0.0000 C   0  0
   11.6950    0.7512    0.0000 C   0  0
   12.9937    1.5035    0.0000 C   0  0
   14.2917    2.2553    0.0000 N   0  0
   11.6971   -0.7488    0.0000 C   0  0
   10.3991   -1.5006    0.0000 C   0  0
   10.4013   -3.0014    0.0000 C   0  0
   11.7009   -3.7504    0.0000 F   0  0
    9.1031   -3.7528    0.0000 F   0  0
   10.4027   -4.5014    0.0000 F   0  0
  2  1  1  4
  2  3  1  0
  2  4  1  0
  4  5  1  0
  5  6  2  0
  5  7  2  0
  5  8  1  0
  8  9  2  0
  9 10  1  0
 10 11  2  0
 11 12  1  0
 12 13  1  0
 12 14  1  0
 12 15  1  0
 11 16  1  0
 16 17  2  0
 17  8  1  0
  2 18  1  0
 18 19  2  0
 18 20  1  0
 20 21  1  0
 21 22  2  0
 22 23  1  0
 23 24  2  0
 24 25  1  0
 25 26  3  0
 24 27  1  0
 27 28  2  0
 28 21  1  0
 28 29  1  0
 29 30  1  0
 29 31  1  0
 29 32  1  0
M  END
> <assay_chembl_id>
CHEMBL4477863

> <assay_description>
Antiproliferative activity against human 22Rv1 cells after 96 hrs by propidium iodide staining based fluorescence 2D monolayer assay

> <document_journal>
Eur J Med Chem

> <molecule_chembl_id>
CHEMBL4575675

> <standard_value>
27870

> <IC50_uM>
27.87

> <Activity>
No

> <Canonical_Smiles>
CC(O)(CS(=O)(=O)c1ccc(C(F)(F)F)cc1)C(=O)Nc1ccc(C#N)cc1C(F)(F)F

$$$$

  SciTegic03142313312D

 32 33  0  0  0  0            999 V2000
    5.1983   -3.0012    0.0000 C   0  0
    5.1988   -1.5012    0.0000 C   0  0  3  0  0  0
    4.3327   -2.0011    0.0000 O   0  0
    3.8990   -0.7508    0.0000 C   0  0
    2.5988   -1.5004    0.0000 S   0  0
    2.5983   -3.0004    0.0000 O   0  0
    3.4646   -2.0008    0.0000 O   0  0
    1.2990   -0.7500    0.0000 C   0  0
    1.2990    0.7500    0.0000 C   0  0
    0.0000    1.5000    0.0000 C   0  0
   -1.2990    0.7500    0.0000 C   0  0
   -1.2990   -0.7500    0.0000 C   0  0
   -2.5988   -1.5004    0.0000 C   0  0
   -3.8983   -0.7513    0.0000 F   0  0
   -2.5983   -3.0004    0.0000 F   0  0
   -3.8975   -2.2510    0.0000 F   0  0
    0.0000   -1.5000    0.0000 C   0  0
    6.4990   -0.7516    0.0000 C   0  0
    6.4995    0.7484    0.0000 O   0  0
    7.7988   -1.5020    0.0000 N   0  0
    9.0990   -0.7525    0.0000 C   0  0
    9.0969    0.7476    0.0000 C   0  0
   10.3949    1.4994    0.0000 C   0  0
   11.6950    0.7512    0.0000 C   0  0
   12.9937    1.5035    0.0000 C   0  0
   14.2917    2.2553    0.0000 N   0  0
   11.6971   -0.7488    0.0000 C   0  0
   10.3991   -1.5006    0.0000 C   0  0
   10.4013   -3.0014    0.0000 C   0  0
   11.7009   -3.7504    0.0000 F   0  0
    9.1031   -3.7528    0.0000 F   0  0
   10.4027   -4.5014    0.0000 F   0  0
  2  1  1  4
  2  3  1  0
  2  4  1  0
  4  5  1  0
  5  6  2  0
  5  7  2  0
  5  8  1  0
  8  9  2  0
  9 10  1  0
 10 11  2  0
 11 12  1  0
 12 13  1  0
 13 14  1  0
 13 15  1  0
 13 16  1  0
 12 17  2  0
 17  8  1  0
  2 18  1  0
 18 19  2  0
 18 20  1  0
 20 21  1  0
 21 22  2  0
 22 23  1  0
 23 24  2  0
 24 25  1  0
 25 26  3  0
 24 27  1  0
 27 28  2  0
 28 21  1  0
 28 29  1  0
 29 30  1  0
 29 31  1  0
 29 32  1  0
M  END
> <assay_chembl_id>
CHEMBL4477863

> <assay_description>
Antiproliferative activity against human 22Rv1 cells after 96 hrs by propidium iodide staining based fluorescence 2D monolayer assay

> <document_journal>
Eur J Med Chem

> <molecule_chembl_id>
CHEMBL4521349

> <standard_value>
34350

> <IC50_uM>
34.35

> <Activity>
No

> <Canonical_Smiles>
CC(O)(CS(=O)(=O)c1cccc(C(F)(F)F)c1)C(=O)Nc1ccc(C#N)cc1C(F)(F)F

$$$$

  SciTegic03142313312D

 32 33  0  0  0  0            999 V2000
    5.1983   -3.0012    0.0000 C   0  0
    5.1988   -1.5012    0.0000 C   0  0  3  0  0  0
    4.3327   -2.0011    0.0000 O   0  0
    3.8990   -0.7508    0.0000 C   0  0
    2.5988   -1.5004    0.0000 S   0  0
    2.5983   -3.0004    0.0000 O   0  0
    3.4646   -2.0008    0.0000 O   0  0
    1.2990   -0.7500    0.0000 C   0  0
    1.2990    0.7500    0.0000 C   0  0
    0.0000    1.5000    0.0000 C   0  0
   -1.2990    0.7500    0.0000 C   0  0
   -1.2990   -0.7500    0.0000 C   0  0
    0.0000   -1.5000    0.0000 C   0  0
    0.0000   -3.0008    0.0000 C   0  0
   -1.2986   -3.7517    0.0000 F   0  0
    1.2993   -3.7504    0.0000 F   0  0
    0.0007   -4.5008    0.0000 F   0  0
    6.4990   -0.7516    0.0000 C   0  0
    6.4995    0.7484    0.0000 O   0  0
    7.7988   -1.5020    0.0000 N   0  0
    9.0990   -0.7525    0.0000 C   0  0
    9.0969    0.7476    0.0000 C   0  0
   10.3949    1.4994    0.0000 C   0  0
   11.6950    0.7512    0.0000 C   0  0
   12.9937    1.5035    0.0000 C   0  0
   14.2917    2.2553    0.0000 N   0  0
   11.6971   -0.7488    0.0000 C   0  0
   10.3991   -1.5006    0.0000 C   0  0
   10.4013   -3.0014    0.0000 C   0  0
   11.7009   -3.7504    0.0000 F   0  0
    9.1031   -3.7528    0.0000 F   0  0
   10.4027   -4.5014    0.0000 F   0  0
  2  1  1  4
  2  3  1  0
  2  4  1  0
  4  5  1  0
  5  6  2  0
  5  7  2  0
  5  8  1  0
  8  9  2  0
  9 10  1  0
 10 11  2  0
 11 12  1  0
 12 13  2  0
 13  8  1  0
 13 14  1  0
 14 15  1  0
 14 16  1  0
 14 17  1  0
  2 18  1  0
 18 19  2  0
 18 20  1  0
 20 21  1  0
 21 22  2  0
 22 23  1  0
 23 24  2  0
 24 25  1  0
 25 26  3  0
 24 27  1  0
 27 28  2  0
 28 21  1  0
 28 29  1  0
 29 30  1  0
 29 31  1  0
 29 32  1  0
M  END
> <assay_chembl_id>
CHEMBL4477863

> <assay_description>
Antiproliferative activity against human 22Rv1 cells after 96 hrs by propidium iodide staining based fluorescence 2D monolayer assay

> <document_journal>
Eur J Med Chem

> <molecule_chembl_id>
CHEMBL4576047

> <standard_value>
98820

> <IC50_uM>
98.82

> <Activity>
No

> <Canonical_Smiles>
CC(O)(CS(=O)(=O)c1ccccc1C(F)(F)F)C(=O)Nc1ccc(C#N)cc1C(F)(F)F

$$$$

  SciTegic03142313312D

 30 31  0  0  0  0            999 V2000
    5.1983   -3.0012    0.0000 C   0  0
    5.1988   -1.5012    0.0000 C   0  0  3  0  0  0
    4.3327   -2.0011    0.0000 O   0  0
    3.8990   -0.7508    0.0000 C   0  0
    2.5988   -1.5004    0.0000 S   0  0
    2.5983   -3.0004    0.0000 O   0  0
    3.4646   -2.0008    0.0000 O   0  0
    1.2990   -0.7500    0.0000 C   0  0
    1.2990    0.7500    0.0000 C   0  0
    0.0000    1.5000    0.0000 C   0  0
   -1.2990    0.7500    0.0000 C   0  0
   -2.5981    1.5000    0.0000 F   0  0
   -1.2990   -0.7500    0.0000 C   0  0
    0.0000   -1.5000    0.0000 C   0  0
    6.4990   -0.7516    0.0000 C   0  0
    6.4995    0.7484    0.0000 O   0  0
    7.7988   -1.5020    0.0000 N   0  0
    9.0990   -0.7525    0.0000 C   0  0
    9.0969    0.7476    0.0000 C   0  0
   10.3949    1.4994    0.0000 C   0  0
   11.6950    0.7512    0.0000 C   0  0
   12.9953    1.5008    0.0000 N   0  3
   14.2943    0.7508    0.0000 O   0  0
   12.9958    3.0008    0.0000 O   0  5
   11.6971   -0.7488    0.0000 C   0  0
   10.3991   -1.5006    0.0000 C   0  0
   10.4013   -3.0014    0.0000 C   0  0
   11.7009   -3.7504    0.0000 F   0  0
    9.1031   -3.7528    0.0000 F   0  0
   10.4027   -4.5014    0.0000 F   0  0
  2  1  1  4
  2  3  1  0
  2  4  1  0
  4  5  1  0
  5  6  2  0
  5  7  2  0
  5  8  1  0
  8  9  2  0
  9 10  1  0
 10 11  2  0
 11 12  1  0
 11 13  1  0
 13 14  2  0
 14  8  1  0
  2 15  1  0
 15 16  2  0
 15 17  1  0
 17 18  1  0
 18 19  2  0
 19 20  1  0
 20 21  2  0
 21 22  1  0
 22 23  2  0
 22 24  1  0
 21 25  1  0
 25 26  2  0
 26 18  1  0
 26 27  1  0
 27 28  1  0
 27 29  1  0
 27 30  1  0
M  CHG  2  22   1  24  -1
M  END
> <assay_chembl_id>
CHEMBL4477863

> <assay_description>
Antiproliferative activity against human 22Rv1 cells after 96 hrs by propidium iodide staining based fluorescence 2D monolayer assay

> <document_journal>
Eur J Med Chem

> <molecule_chembl_id>
CHEMBL4574383

> <standard_value>
46670

> <IC50_uM>
46.67

> <Activity>
No

> <Canonical_Smiles>
CC(O)(CS(=O)(=O)c1ccc(F)cc1)C(=O)Nc1ccc([N+](=O)[O-])cc1C(F)(F)F

$$$$

  SciTegic03142313312D

 33 34  0  0  0  0            999 V2000
    5.1983   -3.0012    0.0000 C   0  0
    5.1988   -1.5012    0.0000 C   0  0  3  0  0  0
    4.3327   -2.0011    0.0000 O   0  0
    3.8990   -0.7508    0.0000 C   0  0
    2.5988   -1.5004    0.0000 S   0  0
    2.5983   -3.0004    0.0000 O   0  0
    3.4646   -2.0008    0.0000 O   0  0
    1.2990   -0.7500    0.0000 C   0  0
    1.2990    0.7500    0.0000 C   0  0
    0.0000    1.5000    0.0000 C   0  0
   -1.2990    0.7500    0.0000 C   0  0
   -2.5988    1.5004    0.0000 C   0  0
   -2.5998    3.0004    0.0000 F   0  0
   -3.8976    0.7500    0.0000 F   0  0
   -3.8982    2.2498    0.0000 F   0  0
   -1.2990   -0.7500    0.0000 C   0  0
    0.0000   -1.5000    0.0000 C   0  0
    6.4990   -0.7516    0.0000 C   0  0
    6.4995    0.7484    0.0000 O   0  0
    7.7988   -1.5020    0.0000 N   0  0
    9.0990   -0.7525    0.0000 C   0  0
    9.0969    0.7476    0.0000 C   0  0
   10.3949    1.4994    0.0000 C   0  0
   11.6950    0.7512    0.0000 C   0  0
   12.9953    1.5008    0.0000 N   0  3
   14.2943    0.7508    0.0000 O   0  0
   12.9958    3.0008    0.0000 O   0  5
   11.6971   -0.7488    0.0000 C   0  0
   10.3991   -1.5006    0.0000 C   0  0
   10.4013   -3.0014    0.0000 C   0  0
   11.7009   -3.7504    0.0000 F   0  0
    9.1031   -3.7528    0.0000 F   0  0
   10.4027   -4.5014    0.0000 F   0  0
  2  1  1  4
  2  3  1  0
  2  4  1  0
  4  5  1  0
  5  6  2  0
  5  7  2  0
  5  8  1  0
  8  9  2  0
  9 10  1  0
 10 11  2  0
 11 12  1  0
 12 13  1  0
 12 14  1  0
 12 15  1  0
 11 16  1  0
 16 17  2  0
 17  8  1  0
  2 18  1  0
 18 19  2  0
 18 20  1  0
 20 21  1  0
 21 22  2  0
 22 23  1  0
 23 24  2  0
 24 25  1  0
 25 26  2  0
 25 27  1  0
 24 28  1  0
 28 29  2  0
 29 21  1  0
 29 30  1  0
 30 31  1  0
 30 32  1  0
 30 33  1  0
M  CHG  2  25   1  27  -1
M  END
> <assay_chembl_id>
CHEMBL4477863

> <assay_description>
Antiproliferative activity against human 22Rv1 cells after 96 hrs by propidium iodide staining based fluorescence 2D monolayer assay

> <document_journal>
Eur J Med Chem

> <molecule_chembl_id>
CHEMBL4580927

> <standard_value>
25390

> <IC50_uM>
25.39

> <Activity>
No

> <Canonical_Smiles>
CC(O)(CS(=O)(=O)c1ccc(C(F)(F)F)cc1)C(=O)Nc1ccc([N+](=O)[O-])cc1C(F)(F)F

$$$$

  SciTegic03142313312D

 33 34  0  0  0  0            999 V2000
    5.1983   -3.0012    0.0000 C   0  0
    5.1988   -1.5012    0.0000 C   0  0  3  0  0  0
    4.3327   -2.0011    0.0000 O   0  0
    3.8990   -0.7508    0.0000 C   0  0
    2.5988   -1.5004    0.0000 S   0  0
    2.5983   -3.0004    0.0000 O   0  0
    3.4646   -2.0008    0.0000 O   0  0
    1.2990   -0.7500    0.0000 C   0  0
    1.2990    0.7500    0.0000 C   0  0
    0.0000    1.5000    0.0000 C   0  0
   -1.2990    0.7500    0.0000 C   0  0
   -1.2990   -0.7500    0.0000 C   0  0
    0.0000   -1.5000    0.0000 C   0  0
    0.0000   -3.0008    0.0000 C   0  0
   -1.2986   -3.7517    0.0000 F   0  0
    1.2993   -3.7504    0.0000 F   0  0
    0.0007   -4.5008    0.0000 F   0  0
    6.4990   -0.7516    0.0000 C   0  0
    6.4995    0.7484    0.0000 O   0  0
    7.7988   -1.5020    0.0000 N   0  0
    9.0990   -0.7525    0.0000 C   0  0
    9.0969    0.7476    0.0000 C   0  0
   10.3949    1.4994    0.0000 C   0  0
   11.6950    0.7512    0.0000 C   0  0
   12.9953    1.5008    0.0000 N   0  3
   14.2943    0.7508    0.0000 O   0  0
   12.9958    3.0008    0.0000 O   0  5
   11.6971   -0.7488    0.0000 C   0  0
   10.3991   -1.5006    0.0000 C   0  0
   10.4013   -3.0014    0.0000 C   0  0
   11.7009   -3.7504    0.0000 F   0  0
    9.1031   -3.7528    0.0000 F   0  0
   10.4027   -4.5014    0.0000 F   0  0
  2  1  1  4
  2  3  1  0
  2  4  1  0
  4  5  1  0
  5  6  2  0
  5  7  2  0
  5  8  1  0
  8  9  2  0
  9 10  1  0
 10 11  2  0
 11 12  1  0
 12 13  2  0
 13  8  1  0
 13 14  1  0
 14 15  1  0
 14 16  1  0
 14 17  1  0
  2 18  1  0
 18 19  2  0
 18 20  1  0
 20 21  1  0
 21 22  2  0
 22 23  1  0
 23 24  2  0
 24 25  1  0
 25 26  2  0
 25 27  1  0
 24 28  1  0
 28 29  2  0
 29 21  1  0
 29 30  1  0
 30 31  1  0
 30 32  1  0
 30 33  1  0
M  CHG  2  25   1  27  -1
M  END
> <assay_chembl_id>
CHEMBL4477863

> <assay_description>
Antiproliferative activity against human 22Rv1 cells after 96 hrs by propidium iodide staining based fluorescence 2D monolayer assay

> <document_journal>
Eur J Med Chem

> <molecule_chembl_id>
CHEMBL4516905

> <standard_value>
28330

> <IC50_uM>
28.33

> <Activity>
No

> <Canonical_Smiles>
CC(O)(CS(=O)(=O)c1ccccc1C(F)(F)F)C(=O)Nc1ccc([N+](=O)[O-])cc1C(F)(F)F

$$$$

  SciTegic03142313312D

 31 32  0  0  0  0            999 V2000
    5.1983   -3.0012    0.0000 C   0  0
    5.1988   -1.5012    0.0000 C   0  0  3  0  0  0
    4.3327   -2.0011    0.0000 O   0  0
    3.8990   -0.7508    0.0000 C   0  0
    2.5988   -1.5004    0.0000 S   0  0
    2.5983   -3.0004    0.0000 O   0  0
    3.4646   -2.0008    0.0000 O   0  0
    1.2990   -0.7500    0.0000 C   0  0
    1.2990    0.7500    0.0000 C   0  0
    0.0000    1.5000    0.0000 C   0  0
   -1.2990    0.7500    0.0000 C   0  0
   -2.5981    1.5000    0.0000 F   0  0
   -1.2990   -0.7500    0.0000 C   0  0
   -2.5981   -1.5000    0.0000 F   0  0
    0.0000   -1.5000    0.0000 C   0  0
    6.4990   -0.7516    0.0000 C   0  0
    6.4995    0.7484    0.0000 O   0  0
    7.7988   -1.5020    0.0000 N   0  0
    9.0990   -0.7525    0.0000 C   0  0
    9.0969    0.7476    0.0000 C   0  0
   10.3949    1.4994    0.0000 C   0  0
   11.6950    0.7512    0.0000 C   0  0
   12.9953    1.5008    0.0000 N   0  3
   14.2943    0.7508    0.0000 O   0  0
   12.9958    3.0008    0.0000 O   0  5
   11.6971   -0.7488    0.0000 C   0  0
   10.3991   -1.5006    0.0000 C   0  0
   10.4013   -3.0014    0.0000 C   0  0
   11.7009   -3.7504    0.0000 F   0  0
    9.1031   -3.7528    0.0000 F   0  0
   10.4027   -4.5014    0.0000 F   0  0
  2  1  1  4
  2  3  1  0
  2  4  1  0
  4  5  1  0
  5  6  2  0
  5  7  2  0
  5  8  1  0
  8  9  2  0
  9 10  1  0
 10 11  2  0
 11 12  1  0
 11 13  1  0
 13 14  1  0
 13 15  2  0
 15  8  1  0
  2 16  1  0
 16 17  2  0
 16 18  1  0
 18 19  1  0
 19 20  2  0
 20 21  1  0
 21 22  2  0
 22 23  1  0
 23 24  2  0
 23 25  1  0
 22 26  1  0
 26 27  2  0
 27 19  1  0
 27 28  1  0
 28 29  1  0
 28 30  1  0
 28 31  1  0
M  CHG  2  23   1  25  -1
M  END
> <assay_chembl_id>
CHEMBL4477863

> <assay_description>
Antiproliferative activity against human 22Rv1 cells after 96 hrs by propidium iodide staining based fluorescence 2D monolayer assay

> <document_journal>
Eur J Med Chem

> <molecule_chembl_id>
CHEMBL4554499

> <standard_value>
33580

> <IC50_uM>
33.58

> <Activity>
No

> <Canonical_Smiles>
CC(O)(CS(=O)(=O)c1ccc(F)c(F)c1)C(=O)Nc1ccc([N+](=O)[O-])cc1C(F)(F)F

$$$$

  SciTegic03142313312D

 31 32  0  0  0  0            999 V2000
    5.1983   -3.0012    0.0000 C   0  0
    5.1988   -1.5012    0.0000 C   0  0  3  0  0  0
    4.3327   -2.0011    0.0000 O   0  0
    3.8990   -0.7508    0.0000 C   0  0
    2.5988   -1.5004    0.0000 S   0  0
    2.5983   -3.0004    0.0000 O   0  0
    3.4646   -2.0008    0.0000 O   0  0
    1.2990   -0.7500    0.0000 C   0  0
    1.2990    0.7500    0.0000 C   0  0
    0.0000    1.5000    0.0000 C   0  0
   -1.2990    0.7500    0.0000 C   0  0
   -2.5981    1.5000    0.0000 F   0  0
   -1.2990   -0.7500    0.0000 C   0  0
    0.0000   -1.5000    0.0000 C   0  0
    0.0000   -3.0000    0.0000 F   0  0
    6.4990   -0.7516    0.0000 C   0  0
    6.4995    0.7484    0.0000 O   0  0
    7.7988   -1.5020    0.0000 N   0  0
    9.0990   -0.7525    0.0000 C   0  0
    9.0969    0.7476    0.0000 C   0  0
   10.3949    1.4994    0.0000 C   0  0
   11.6950    0.7512    0.0000 C   0  0
   12.9953    1.5008    0.0000 N   0  3
   14.2943    0.7508    0.0000 O   0  0
   12.9958    3.0008    0.0000 O   0  5
   11.6971   -0.7488    0.0000 C   0  0
   10.3991   -1.5006    0.0000 C   0  0
   10.4013   -3.0014    0.0000 C   0  0
   11.7009   -3.7504    0.0000 F   0  0
    9.1031   -3.7528    0.0000 F   0  0
   10.4027   -4.5014    0.0000 F   0  0
  2  1  1  4
  2  3  1  0
  2  4  1  0
  4  5  1  0
  5  6  2  0
  5  7  2  0
  5  8  1  0
  8  9  2  0
  9 10  1  0
 10 11  2  0
 11 12  1  0
 11 13  1  0
 13 14  2  0
 14  8  1  0
 14 15  1  0
  2 16  1  0
 16 17  2  0
 16 18  1  0
 18 19  1  0
 19 20  2  0
 20 21  1  0
 21 22  2  0
 22 23  1  0
 23 24  2  0
 23 25  1  0
 22 26  1  0
 26 27  2  0
 27 19  1  0
 27 28  1  0
 28 29  1  0
 28 30  1  0
 28 31  1  0
M  CHG  2  23   1  25  -1
M  END
> <assay_chembl_id>
CHEMBL4477863

> <assay_description>
Antiproliferative activity against human 22Rv1 cells after 96 hrs by propidium iodide staining based fluorescence 2D monolayer assay

> <document_journal>
Eur J Med Chem

> <molecule_chembl_id>
CHEMBL4533317

> <standard_value>
30240

> <IC50_uM>
30.24

> <Activity>
No

> <Canonical_Smiles>
CC(O)(CS(=O)(=O)c1ccc(F)cc1F)C(=O)Nc1ccc([N+](=O)[O-])cc1C(F)(F)F

$$$$

  SciTegic03142313312D

 34 35  0  0  0  0            999 V2000
    5.1983   -3.0012    0.0000 C   0  0
    5.1988   -1.5012    0.0000 C   0  0  3  0  0  0
    4.3327   -2.0011    0.0000 O   0  0
    3.8990   -0.7508    0.0000 C   0  0
    2.5988   -1.5004    0.0000 S   0  0
    2.5983   -3.0004    0.0000 O   0  0
    3.4646   -2.0008    0.0000 O   0  0
    1.2990   -0.7500    0.0000 C   0  0
    1.2990    0.7500    0.0000 C   0  0
    0.0000    1.5000    0.0000 C   0  0
   -1.2990    0.7500    0.0000 C   0  0
   -1.2990   -0.7500    0.0000 C   0  0
    0.0000   -1.5000    0.0000 C   0  0
   -0.0031   -3.0008    0.0000 O   0  0
   -1.3039   -3.7494    0.0000 C   0  0
   -1.3070   -5.2494    0.0000 F   0  0
   -2.6016   -2.9971    0.0000 F   0  0
   -2.6044   -4.4969    0.0000 F   0  0
    6.4990   -0.7516    0.0000 C   0  0
    6.4995    0.7484    0.0000 O   0  0
    7.7988   -1.5020    0.0000 N   0  0
    9.0990   -0.7525    0.0000 C   0  0
    9.0969    0.7476    0.0000 C   0  0
   10.3949    1.4994    0.0000 C   0  0
   11.6950    0.7512    0.0000 C   0  0
   12.9953    1.5008    0.0000 N   0  3
   14.2943    0.7508    0.0000 O   0  0
   12.9958    3.0008    0.0000 O   0  5
   11.6971   -0.7488    0.0000 C   0  0
   10.3991   -1.5006    0.0000 C   0  0
   10.4013   -3.0014    0.0000 C   0  0
   11.7009   -3.7504    0.0000 F   0  0
    9.1031   -3.7528    0.0000 F   0  0
   10.4027   -4.5014    0.0000 F   0  0
  2  1  1  4
  2  3  1  0
  2  4  1  0
  4  5  1  0
  5  6  2  0
  5  7  2  0
  5  8  1  0
  8  9  2  0
  9 10  1  0
 10 11  2  0
 11 12  1  0
 12 13  2  0
 13  8  1  0
 13 14  1  0
 14 15  1  0
 15 16  1  0
 15 17  1  0
 15 18  1  0
  2 19  1  0
 19 20  2  0
 19 21  1  0
 21 22  1  0
 22 23  2  0
 23 24  1  0
 24 25  2  0
 25 26  1  0
 26 27  2  0
 26 28  1  0
 25 29  1  0
 29 30  2  0
 30 22  1  0
 30 31  1  0
 31 32  1  0
 31 33  1  0
 31 34  1  0
M  CHG  2  26   1  28  -1
M  END
> <assay_chembl_id>
CHEMBL4477863

> <assay_description>
Antiproliferative activity against human 22Rv1 cells after 96 hrs by propidium iodide staining based fluorescence 2D monolayer assay

> <document_journal>
Eur J Med Chem

> <molecule_chembl_id>
CHEMBL4584447

> <standard_value>
28790

> <IC50_uM>
28.79

> <Activity>
No

> <Canonical_Smiles>
CC(O)(CS(=O)(=O)c1ccccc1OC(F)(F)F)C(=O)Nc1ccc([N+](=O)[O-])cc1C(F)(F)F

$$$$

  SciTegic03142313312D

 33 34  0  0  0  0            999 V2000
    5.1983   -3.0012    0.0000 C   0  0
    5.1988   -1.5012    0.0000 C   0  0  3  0  0  0
    4.3327   -2.0011    0.0000 O   0  0
    3.8990   -0.7508    0.0000 C   0  0
    2.5988   -1.5004    0.0000 S   0  0
    2.5983   -3.0004    0.0000 O   0  0
    3.4646   -2.0008    0.0000 O   0  0
    1.2990   -0.7500    0.0000 C   0  0
    1.2990    0.7500    0.0000 C   0  0
    0.0000    1.5000    0.0000 C   0  0
   -1.2990    0.7500    0.0000 C   0  0
   -2.5988    1.5004    0.0000 C   0  0
   -2.5998    3.0004    0.0000 F   0  0
   -3.8976    0.7500    0.0000 F   0  0
   -3.8982    2.2498    0.0000 F   0  0
   -1.2990   -0.7500    0.0000 C   0  0
    0.0000   -1.5000    0.0000 N   0  0
    6.4990   -0.7516    0.0000 C   0  0
    6.4995    0.7484    0.0000 O   0  0
    7.7988   -1.5020    0.0000 N   0  0
    9.0990   -0.7525    0.0000 C   0  0
    9.0969    0.7476    0.0000 C   0  0
   10.3949    1.4994    0.0000 C   0  0
   11.6950    0.7512    0.0000 C   0  0
   12.9953    1.5008    0.0000 N   0  3
   14.2943    0.7508    0.0000 O   0  0
   12.9958    3.0008    0.0000 O   0  5
   11.6971   -0.7488    0.0000 C   0  0
   10.3991   -1.5006    0.0000 C   0  0
   10.4013   -3.0014    0.0000 C   0  0
   11.7009   -3.7504    0.0000 F   0  0
    9.1031   -3.7528    0.0000 F   0  0
   10.4027   -4.5014    0.0000 F   0  0
  2  1  1  4
  2  3  1  0
  2  4  1  0
  4  5  1  0
  5  6  2  0
  5  7  2  0
  5  8  1  0
  8  9  2  0
  9 10  1  0
 10 11  2  0
 11 12  1  0
 12 13  1  0
 12 14  1  0
 12 15  1  0
 11 16  1  0
 16 17  2  0
 17  8  1  0
  2 18  1  0
 18 19  2  0
 18 20  1  0
 20 21  1  0
 21 22  2  0
 22 23  1  0
 23 24  2  0
 24 25  1  0
 25 26  2  0
 25 27  1  0
 24 28  1  0
 28 29  2  0
 29 21  1  0
 29 30  1  0
 30 31  1  0
 30 32  1  0
 30 33  1  0
M  CHG  2  25   1  27  -1
M  END
> <assay_chembl_id>
CHEMBL4477863

> <assay_description>
Antiproliferative activity against human 22Rv1 cells after 96 hrs by propidium iodide staining based fluorescence 2D monolayer assay

> <document_journal>
Eur J Med Chem

> <molecule_chembl_id>
CHEMBL4537876

> <standard_value>
100000

> <IC50_uM>
100

> <Activity>
No

> <Canonical_Smiles>
CC(O)(CS(=O)(=O)c1ccc(C(F)(F)F)cn1)C(=O)Nc1ccc([N+](=O)[O-])cc1C(F)(F)F

$$$$

  SciTegic03142313312D

 33 34  0  0  0  0            999 V2000
    5.1983   -3.0012    0.0000 C   0  0
    5.1988   -1.5012    0.0000 C   0  0  3  0  0  0
    4.3327   -2.0011    0.0000 O   0  0
    3.8990   -0.7508    0.0000 C   0  0
    2.5988   -1.5004    0.0000 S   0  0
    2.5983   -3.0004    0.0000 O   0  0
    3.4646   -2.0008    0.0000 O   0  0
    1.2990   -0.7500    0.0000 C   0  0
    1.2990    0.7500    0.0000 C   0  0
    0.0000    1.5000    0.0000 C   0  0
    0.0000    3.0008    0.0000 C   0  0
    1.2985    3.7517    0.0000 F   0  0
   -1.2993    3.7504    0.0000 F   0  0
   -0.0007    4.5008    0.0000 F   0  0
   -1.2990    0.7500    0.0000 C   0  0
   -1.2990   -0.7500    0.0000 C   0  0
    0.0000   -1.5000    0.0000 N   0  0
    6.4990   -0.7516    0.0000 C   0  0
    6.4995    0.7484    0.0000 O   0  0
    7.7988   -1.5020    0.0000 N   0  0
    9.0990   -0.7525    0.0000 C   0  0
    9.0969    0.7476    0.0000 C   0  0
   10.3949    1.4994    0.0000 C   0  0
   11.6950    0.7512    0.0000 C   0  0
   12.9953    1.5008    0.0000 N   0  3
   14.2943    0.7508    0.0000 O   0  0
   12.9958    3.0008    0.0000 O   0  5
   11.6971   -0.7488    0.0000 C   0  0
   10.3991   -1.5006    0.0000 C   0  0
   10.4013   -3.0014    0.0000 C   0  0
   11.7009   -3.7504    0.0000 F   0  0
    9.1031   -3.7528    0.0000 F   0  0
   10.4027   -4.5014    0.0000 F   0  0
  2  1  1  4
  2  3  1  0
  2  4  1  0
  4  5  1  0
  5  6  2  0
  5  7  2  0
  5  8  1  0
  8  9  2  0
  9 10  1  0
 10 11  1  0
 11 12  1  0
 11 13  1  0
 11 14  1  0
 10 15  2  0
 15 16  1  0
 16 17  2  0
 17  8  1  0
  2 18  1  0
 18 19  2  0
 18 20  1  0
 20 21  1  0
 21 22  2  0
 22 23  1  0
 23 24  2  0
 24 25  1  0
 25 26  2  0
 25 27  1  0
 24 28  1  0
 28 29  2  0
 29 21  1  0
 29 30  1  0
 30 31  1  0
 30 32  1  0
 30 33  1  0
M  CHG  2  25   1  27  -1
M  END
> <assay_chembl_id>
CHEMBL4477863

> <assay_description>
Antiproliferative activity against human 22Rv1 cells after 96 hrs by propidium iodide staining based fluorescence 2D monolayer assay

> <document_journal>
Eur J Med Chem

> <molecule_chembl_id>
CHEMBL4566975

> <standard_value>
46460

> <IC50_uM>
46.46

> <Activity>
No

> <Canonical_Smiles>
CC(O)(CS(=O)(=O)c1cc(C(F)(F)F)ccn1)C(=O)Nc1ccc([N+](=O)[O-])cc1C(F)(F)F

$$$$

  SciTegic03142313312D

 31 32  0  0  1  0            999 V2000
    5.1937   -3.0093    0.0000 C   0  0
    3.8933   -3.7570    0.0000 C   0  0  2  0  0  0
    2.5930   -4.5047    0.0000 O   0  0
    2.5951   -3.0039    0.0000 C   0  0
    2.5973   -1.5031    0.0000 S   0  0
    1.2990   -0.7500    0.0000 C   0  0
    1.2990    0.7500    0.0000 C   0  0
    0.0000    1.5000    0.0000 C   0  0
   -1.2990    0.7500    0.0000 C   0  0
   -2.6003    1.4977    0.0000 O   0  0
   -3.8990    0.7455    0.0000 C   0  0
   -5.1996    1.4928    0.0000 F   0  0
   -3.8964   -0.7545    0.0000 F   0  0
   -5.1966   -0.0070    0.0000 F   0  0
   -1.2990   -0.7500    0.0000 C   0  0
    0.0000   -1.5000    0.0000 C   0  0
    3.8912   -5.2578    0.0000 C   0  0
    2.5909   -6.0056    0.0000 O   0  0
    5.1894   -6.0109    0.0000 N   0  0
    5.1873   -7.5117    0.0000 C   0  0
    6.4837   -8.2663    0.0000 C   0  0
    6.4785   -9.7663    0.0000 C   0  0
    5.1769  -10.5118    0.0000 C   0  0
    5.1717  -12.0126    0.0000 C   0  0
    5.1665  -13.5126    0.0000 N   0  0
    3.8804   -9.7573    0.0000 C   0  0
    2.5781  -10.5032    0.0000 C   0  0
    2.5720  -12.0032    0.0000 F   0  0
    1.2819   -9.7483    0.0000 F   0  0
    1.2761  -11.2481    0.0000 F   0  0
    3.8856   -8.2573    0.0000 C   0  0
  2  1  1  6
  2  3  1  0
  2  4  1  0
  4  5  1  0
  5  6  1  0
  6  7  2  0
  7  8  1  0
  8  9  2  0
  9 10  1  0
 10 11  1  0
 11 12  1  0
 11 13  1  0
 11 14  1  0
  9 15  1  0
 15 16  2  0
 16  6  1  0
  2 17  1  0
 17 18  2  0
 17 19  1  0
 19 20  1  0
 20 21  2  0
 21 22  1  0
 22 23  2  0
 23 24  1  0
 24 25  3  0
 23 26  1  0
 26 27  1  0
 27 28  1  0
 27 29  1  0
 27 30  1  0
 26 31  2  0
 31 20  1  0
M  END
> <assay_chembl_id>
CHEMBL4477863

> <assay_description>
Antiproliferative activity against human 22Rv1 cells after 96 hrs by propidium iodide staining based fluorescence 2D monolayer assay

> <document_journal>
Eur J Med Chem

> <molecule_chembl_id>
CHEMBL4526555

> <standard_value>
28810

> <IC50_uM>
28.81

> <Activity>
No

> <Canonical_Smiles>
C[C@](O)(CSc1ccc(OC(F)(F)F)cc1)C(=O)Nc1ccc(C#N)c(C(F)(F)F)c1

$$$$

  SciTegic03142313312D

 28 29  0  0  1  0            999 V2000
    5.1937   -3.0093    0.0000 C   0  0
    3.8933   -3.7570    0.0000 C   0  0  2  0  0  0
    2.5930   -4.5047    0.0000 O   0  0
    2.5951   -3.0039    0.0000 C   0  0
    2.5973   -1.5031    0.0000 O   0  0
    1.2990   -0.7500    0.0000 C   0  0
    1.2990    0.7500    0.0000 C   0  0
    0.0000    1.5000    0.0000 C   0  0
   -1.2990    0.7500    0.0000 C   0  0
   -2.5988    1.5004    0.0000 C   0  0
   -3.8978    2.2504    0.0000 N   0  0
   -1.2990   -0.7500    0.0000 C   0  0
    0.0000   -1.5000    0.0000 C   0  0
    3.8912   -5.2578    0.0000 C   0  0
    2.5909   -6.0056    0.0000 O   0  0
    5.1894   -6.0109    0.0000 N   0  0
    5.1873   -7.5117    0.0000 C   0  0
    6.4837   -8.2663    0.0000 C   0  0
    6.4785   -9.7663    0.0000 C   0  0
    5.1769  -10.5118    0.0000 C   0  0
    5.1717  -12.0126    0.0000 C   0  0
    5.1665  -13.5126    0.0000 N   0  0
    3.8804   -9.7573    0.0000 C   0  0
    2.5781  -10.5032    0.0000 C   0  0
    2.5720  -12.0032    0.0000 F   0  0
    1.2819   -9.7483    0.0000 F   0  0
    1.2761  -11.2481    0.0000 F   0  0
    3.8856   -8.2573    0.0000 C   0  0
  2  1  1  6
  2  3  1  0
  2  4  1  0
  4  5  1  0
  5  6  1  0
  6  7  2  0
  7  8  1  0
  8  9  2  0
  9 10  1  0
 10 11  3  0
  9 12  1  0
 12 13  2  0
 13  6  1  0
  2 14  1  0
 14 15  2  0
 14 16  1  0
 16 17  1  0
 17 18  2  0
 18 19  1  0
 19 20  2  0
 20 21  1  0
 21 22  3  0
 20 23  1  0
 23 24  1  0
 24 25  1  0
 24 26  1  0
 24 27  1  0
 23 28  2  0
 28 17  1  0
M  END
> <assay_chembl_id>
CHEMBL4477863

> <assay_description>
Antiproliferative activity against human 22Rv1 cells after 96 hrs by propidium iodide staining based fluorescence 2D monolayer assay

> <document_journal>
Eur J Med Chem

> <molecule_chembl_id>
CHEMBL1738889

> <standard_value>
24770

> <IC50_uM>
24.77

> <Activity>
No

> <Canonical_Smiles>
C[C@](O)(COc1ccc(C#N)cc1)C(=O)Nc1ccc(C#N)c(C(F)(F)F)c1

$$$$

  SciTegic03142313312D

 32 33  0  0  1  0            999 V2000
    5.1983   -3.0012    0.0000 C   0  0
    5.1988   -1.5012    0.0000 C   0  0  2  0  0  0
    5.1992   -0.0012    0.0000 O   0  0
    3.8990   -0.7508    0.0000 C   0  0
    2.5988   -1.5004    0.0000 S   0  0
    2.5983   -3.0004    0.0000 O   0  0
    3.8975   -2.2510    0.0000 O   0  0
    1.2990   -0.7500    0.0000 C   0  0
    1.2990    0.7500    0.0000 C   0  0
    0.0000    1.5000    0.0000 C   0  0
   -1.2990    0.7500    0.0000 C   0  0
   -2.5988    1.5004    0.0000 C   0  0
   -2.5998    3.0004    0.0000 F   0  0
   -3.8976    0.7500    0.0000 F   0  0
   -3.8982    2.2498    0.0000 F   0  0
   -1.2990   -0.7500    0.0000 C   0  0
    0.0000   -1.5000    0.0000 C   0  0
    6.4990   -0.7516    0.0000 C   0  0
    6.4995    0.7484    0.0000 O   0  0
    7.7988   -1.5020    0.0000 N   0  0
    9.0990   -0.7525    0.0000 C   0  0
   10.3991   -1.5006    0.0000 C   0  0
   11.6971   -0.7487    0.0000 C   0  0
   11.6950    0.7512    0.0000 C   0  0
   12.9937    1.5035    0.0000 C   0  0
   14.2917    2.2553    0.0000 N   0  0
   10.3949    1.4994    0.0000 C   0  0
   10.3928    3.0003    0.0000 C   0  0
   11.6903    3.7529    0.0000 F   0  0
    9.0925    3.7480    0.0000 F   0  0
   10.3900    4.5002    0.0000 F   0  0
    9.0969    0.7476    0.0000 C   0  0
  2  1  1  1
  2  3  1  0
  2  4  1  0
  4  5  1  0
  5  6  2  0
  5  7  2  0
  5  8  1  0
  8  9  2  0
  9 10  1  0
 10 11  2  0
 11 12  1  0
 12 13  1  0
 12 14  1  0
 12 15  1  0
 11 16  1  0
 16 17  2  0
 17  8  1  0
  2 18  1  0
 18 19  2  0
 18 20  1  0
 20 21  1  0
 21 22  2  0
 22 23  1  0
 23 24  2  0
 24 25  1  0
 25 26  3  0
 24 27  1  0
 27 28  1  0
 28 29  1  0
 28 30  1  0
 28 31  1  0
 27 32  2  0
 32 21  1  0
M  END
> <assay_chembl_id>
CHEMBL4477863

> <assay_description>
Antiproliferative activity against human 22Rv1 cells after 96 hrs by propidium iodide staining based fluorescence 2D monolayer assay

> <document_journal>
Eur J Med Chem

> <molecule_chembl_id>
CHEMBL4585541

> <standard_value>
20190

> <IC50_uM>
20.19

> <Activity>
No

> <Canonical_Smiles>
C[C@](O)(CS(=O)(=O)c1ccc(C(F)(F)F)cc1)C(=O)Nc1ccc(C#N)c(C(F)(F)F)c1

$$$$

  SciTegic03142313312D

 32 33  0  0  1  0            999 V2000
    5.1983   -3.0012    0.0000 C   0  0
    5.1988   -1.5012    0.0000 C   0  0  2  0  0  0
    5.1992   -0.0012    0.0000 O   0  0
    3.8990   -0.7508    0.0000 C   0  0
    2.5988   -1.5004    0.0000 S   0  0
    2.5983   -3.0004    0.0000 O   0  0
    3.8975   -2.2510    0.0000 O   0  0
    1.2990   -0.7500    0.0000 C   0  0
    1.2990    0.7500    0.0000 C   0  0
    0.0000    1.5000    0.0000 C   0  0
   -1.2990    0.7500    0.0000 C   0  0
   -1.2990   -0.7500    0.0000 C   0  0
   -2.5988   -1.5004    0.0000 C   0  0
   -3.8983   -0.7513    0.0000 F   0  0
   -2.5983   -3.0004    0.0000 F   0  0
   -3.8975   -2.2510    0.0000 F   0  0
    0.0000   -1.5000    0.0000 C   0  0
    6.4990   -0.7516    0.0000 C   0  0
    6.4995    0.7484    0.0000 O   0  0
    7.7988   -1.5020    0.0000 N   0  0
    9.0990   -0.7525    0.0000 C   0  0
   10.3991   -1.5006    0.0000 C   0  0
   11.6971   -0.7487    0.0000 C   0  0
   11.6950    0.7512    0.0000 C   0  0
   12.9937    1.5035    0.0000 C   0  0
   14.2917    2.2553    0.0000 N   0  0
   10.3949    1.4994    0.0000 C   0  0
   10.3928    3.0003    0.0000 C   0  0
   11.6903    3.7529    0.0000 F   0  0
    9.0925    3.7480    0.0000 F   0  0
   10.3900    4.5002    0.0000 F   0  0
    9.0969    0.7476    0.0000 C   0  0
  2  1  1  1
  2  3  1  0
  2  4  1  0
  4  5  1  0
  5  6  2  0
  5  7  2  0
  5  8  1  0
  8  9  2  0
  9 10  1  0
 10 11  2  0
 11 12  1  0
 12 13  1  0
 13 14  1  0
 13 15  1  0
 13 16  1  0
 12 17  2  0
 17  8  1  0
  2 18  1  0
 18 19  2  0
 18 20  1  0
 20 21  1  0
 21 22  2  0
 22 23  1  0
 23 24  2  0
 24 25  1  0
 25 26  3  0
 24 27  1  0
 27 28  1  0
 28 29  1  0
 28 30  1  0
 28 31  1  0
 27 32  2  0
 32 21  1  0
M  END
> <assay_chembl_id>
CHEMBL4477863

> <assay_description>
Antiproliferative activity against human 22Rv1 cells after 96 hrs by propidium iodide staining based fluorescence 2D monolayer assay

> <document_journal>
Eur J Med Chem

> <molecule_chembl_id>
CHEMBL4540249

> <standard_value>
25660

> <IC50_uM>
25.66

> <Activity>
No

> <Canonical_Smiles>
C[C@](O)(CS(=O)(=O)c1cccc(C(F)(F)F)c1)C(=O)Nc1ccc(C#N)c(C(F)(F)F)c1

$$$$

  SciTegic03142313312D

 32 33  0  0  1  0            999 V2000
    5.1983   -3.0012    0.0000 C   0  0
    5.1988   -1.5012    0.0000 C   0  0  2  0  0  0
    5.1992   -0.0012    0.0000 O   0  0
    3.8990   -0.7508    0.0000 C   0  0
    2.5988   -1.5004    0.0000 S   0  0
    2.5983   -3.0004    0.0000 O   0  0
    3.8975   -2.2510    0.0000 O   0  0
    1.2990   -0.7500    0.0000 C   0  0
    1.2990    0.7500    0.0000 C   0  0
    0.0000    1.5000    0.0000 C   0  0
   -1.2990    0.7500    0.0000 C   0  0
   -1.2990   -0.7500    0.0000 C   0  0
    0.0000   -1.5000    0.0000 C   0  0
    0.0000   -3.0008    0.0000 C   0  0
   -1.2986   -3.7517    0.0000 F   0  0
    1.2993   -3.7504    0.0000 F   0  0
    0.0007   -4.5008    0.0000 F   0  0
    6.4990   -0.7516    0.0000 C   0  0
    6.4995    0.7484    0.0000 O   0  0
    7.7988   -1.5020    0.0000 N   0  0
    9.0990   -0.7525    0.0000 C   0  0
   10.3991   -1.5006    0.0000 C   0  0
   11.6971   -0.7487    0.0000 C   0  0
   11.6950    0.7512    0.0000 C   0  0
   12.9937    1.5035    0.0000 C   0  0
   14.2917    2.2553    0.0000 N   0  0
   10.3949    1.4994    0.0000 C   0  0
   10.3928    3.0003    0.0000 C   0  0
   11.6903    3.7529    0.0000 F   0  0
    9.0925    3.7480    0.0000 F   0  0
   10.3900    4.5002    0.0000 F   0  0
    9.0969    0.7476    0.0000 C   0  0
  2  1  1  1
  2  3  1  0
  2  4  1  0
  4  5  1  0
  5  6  2  0
  5  7  2  0
  5  8  1  0
  8  9  2  0
  9 10  1  0
 10 11  2  0
 11 12  1  0
 12 13  2  0
 13  8  1  0
 13 14  1  0
 14 15  1  0
 14 16  1  0
 14 17  1  0
  2 18  1  0
 18 19  2  0
 18 20  1  0
 20 21  1  0
 21 22  2  0
 22 23  1  0
 23 24  2  0
 24 25  1  0
 25 26  3  0
 24 27  1  0
 27 28  1  0
 28 29  1  0
 28 30  1  0
 28 31  1  0
 27 32  2  0
 32 21  1  0
M  END
> <assay_chembl_id>
CHEMBL4477863

> <assay_description>
Antiproliferative activity against human 22Rv1 cells after 96 hrs by propidium iodide staining based fluorescence 2D monolayer assay

> <document_journal>
Eur J Med Chem

> <molecule_chembl_id>
CHEMBL4575699

> <standard_value>
34750

> <IC50_uM>
34.75

> <Activity>
No

> <Canonical_Smiles>
C[C@](O)(CS(=O)(=O)c1ccccc1C(F)(F)F)C(=O)Nc1ccc(C#N)c(C(F)(F)F)c1

$$$$

  SciTegic03142313312D

 30 31  0  0  1  0            999 V2000
    5.1983   -3.0012    0.0000 C   0  0
    5.1988   -1.5012    0.0000 C   0  0  2  0  0  0
    5.1992   -0.0012    0.0000 O   0  0
    3.8990   -0.7508    0.0000 C   0  0
    2.5988   -1.5004    0.0000 S   0  0
    2.5983   -3.0004    0.0000 O   0  0
    3.8975   -2.2510    0.0000 O   0  0
    1.2990   -0.7500    0.0000 C   0  0
    1.2990    0.7500    0.0000 C   0  0
    0.0000    1.5000    0.0000 C   0  0
   -1.2990    0.7500    0.0000 C   0  0
   -2.5981    1.5000    0.0000 F   0  0
   -1.2990   -0.7500    0.0000 C   0  0
    0.0000   -1.5000    0.0000 C   0  0
    0.0000   -3.0000    0.0000 F   0  0
    6.4990   -0.7516    0.0000 C   0  0
    6.4995    0.7484    0.0000 O   0  0
    7.7988   -1.5020    0.0000 N   0  0
    9.0990   -0.7525    0.0000 C   0  0
   10.3991   -1.5006    0.0000 C   0  0
   11.6971   -0.7487    0.0000 C   0  0
   11.6950    0.7512    0.0000 C   0  0
   12.9937    1.5035    0.0000 C   0  0
   14.2917    2.2553    0.0000 N   0  0
   10.3949    1.4994    0.0000 C   0  0
   10.3928    3.0003    0.0000 C   0  0
   11.6903    3.7529    0.0000 F   0  0
    9.0925    3.7480    0.0000 F   0  0
   10.3900    4.5002    0.0000 F   0  0
    9.0969    0.7476    0.0000 C   0  0
  2  1  1  1
  2  3  1  0
  2  4  1  0
  4  5  1  0
  5  6  2  0
  5  7  2  0
  5  8  1  0
  8  9  2  0
  9 10  1  0
 10 11  2  0
 11 12  1  0
 11 13  1  0
 13 14  2  0
 14  8  1  0
 14 15  1  0
  2 16  1  0
 16 17  2  0
 16 18  1  0
 18 19  1  0
 19 20  2  0
 20 21  1  0
 21 22  2  0
 22 23  1  0
 23 24  3  0
 22 25  1  0
 25 26  1  0
 26 27  1  0
 26 28  1  0
 26 29  1  0
 25 30  2  0
 30 19  1  0
M  END
> <assay_chembl_id>
CHEMBL4477863

> <assay_description>
Antiproliferative activity against human 22Rv1 cells after 96 hrs by propidium iodide staining based fluorescence 2D monolayer assay

> <document_journal>
Eur J Med Chem

> <molecule_chembl_id>
CHEMBL4574316

> <standard_value>
42250

> <IC50_uM>
42.25

> <Activity>
No

> <Canonical_Smiles>
C[C@](O)(CS(=O)(=O)c1ccc(F)cc1F)C(=O)Nc1ccc(C#N)c(C(F)(F)F)c1

$$$$

  SciTegic03142313312D

 29 30  0  0  1  0            999 V2000
    5.1983   -3.0012    0.0000 C   0  0
    5.1988   -1.5012    0.0000 C   0  0  2  0  0  0
    5.1992   -0.0012    0.0000 O   0  0
    3.8990   -0.7508    0.0000 C   0  0
    2.5988   -1.5004    0.0000 S   0  0
    2.5983   -3.0004    0.0000 O   0  0
    3.8975   -2.2510    0.0000 O   0  0
    1.2990   -0.7500    0.0000 C   0  0
    1.2990    0.7500    0.0000 C   0  0
    0.0000    1.5000    0.0000 C   0  0
   -1.2990    0.7500    0.0000 C   0  0
   -2.5981    1.5000    0.0000 F   0  0
   -1.2990   -0.7500    0.0000 C   0  0
    0.0000   -1.5000    0.0000 C   0  0
    6.4990   -0.7516    0.0000 C   0  0
    6.4995    0.7484    0.0000 O   0  0
    7.7988   -1.5020    0.0000 N   0  0
    9.0990   -0.7525    0.0000 C   0  0
    9.0969    0.7476    0.0000 C   0  0
   10.3949    1.4994    0.0000 C   0  0
   11.6950    0.7512    0.0000 C   0  0
   12.9937    1.5035    0.0000 C   0  0
   14.2917    2.2553    0.0000 N   0  0
   11.6971   -0.7488    0.0000 C   0  0
   10.3991   -1.5006    0.0000 C   0  0
   10.4013   -3.0014    0.0000 C   0  0
   11.7009   -3.7504    0.0000 F   0  0
    9.1031   -3.7528    0.0000 F   0  0
   10.4027   -4.5014    0.0000 F   0  0
  2  1  1  1
  2  3  1  0
  2  4  1  0
  4  5  1  0
  5  6  2  0
  5  7  2  0
  5  8  1  0
  8  9  2  0
  9 10  1  0
 10 11  2  0
 11 12  1  0
 11 13  1  0
 13 14  2  0
 14  8  1  0
  2 15  1  0
 15 16  2  0
 15 17  1  0
 17 18  1  0
 18 19  2  0
 19 20  1  0
 20 21  2  0
 21 22  1  0
 22 23  3  0
 21 24  1  0
 24 25  2  0
 25 18  1  0
 25 26  1  0
 26 27  1  0
 26 28  1  0
 26 29  1  0
M  END
> <assay_chembl_id>
CHEMBL4477863

> <assay_description>
Antiproliferative activity against human 22Rv1 cells after 96 hrs by propidium iodide staining based fluorescence 2D monolayer assay

> <document_journal>
Eur J Med Chem

> <molecule_chembl_id>
CHEMBL4576691

> <standard_value>
100000

> <IC50_uM>
100

> <Activity>
No

> <Canonical_Smiles>
C[C@](O)(CS(=O)(=O)c1ccc(F)cc1)C(=O)Nc1ccc(C#N)cc1C(F)(F)F

$$$$

  SciTegic03142313312D

 31 33  0  0  0  0            999 V2000
    5.5447   -0.6194    0.0000 C   0  0
    4.9531   -1.9978    0.0000 C   0  0
    5.8147   -3.2256    0.0000 C   0  0
    3.9511   -0.8815    0.0000 C   0  0
    4.2566    0.5871    0.0000 O   0  0
    2.5987   -1.5004    0.0000 N   0  0
    1.2990   -0.7500    0.0000 C   0  0
    1.2990    0.7500    0.0000 C   0  0
    0.0000    1.5000    0.0000 C   0  0
   -1.2990    0.7500    0.0000 C   0  0
   -2.5988    1.5004    0.0000 C   0  0
   -2.5998    3.0004    0.0000 F   0  0
   -3.8976    0.7500    0.0000 F   0  0
   -3.8982    2.2498    0.0000 F   0  0
   -1.2990   -0.7500    0.0000 C   0  0
    0.0000   -1.5000    0.0000 C   0  0
    2.7343   -2.9815    0.0000 C   0  0
    1.6120   -3.9767    0.0000 O   0  0
    4.2010   -3.2956    0.0000 N   0  0
    4.8092   -4.6676    0.0000 C   0  0
    4.0212   -5.9381    0.0000 C   0  0
    4.7306   -7.2598    0.0000 C   0  0
    6.2299   -7.3062    0.0000 C   0  0
    6.9397   -8.6286    0.0000 C   0  0
    7.6490   -9.9503    0.0000 N   0  0
    7.0198   -6.0311    0.0000 C   0  0
    8.5199   -6.0776    0.0000 C   0  0
    9.2301   -7.3988    0.0000 F   0  0
    9.3094   -4.8021    0.0000 F   0  0
   10.0192   -6.1233    0.0000 F   0  0
    6.3104   -4.7094    0.0000 C   0  0
  1  2  1  0
  2  3  1  0
  2  4  1  0
  4  5  2  0
  4  6  1  0
  6  7  1  0
  7  8  2  0
  8  9  1  0
  9 10  2  0
 10 11  1  0
 11 12  1  0
 11 13  1  0
 11 14  1  0
 10 15  1  0
 15 16  2  0
 16  7  1  0
  6 17  1  0
 17 18  2  0
 17 19  1  0
 19  2  1  0
 19 20  1  0
 20 21  2  0
 21 22  1  0
 22 23  2  0
 23 24  1  0
 24 25  3  0
 23 26  1  0
 26 27  1  0
 27 28  1  0
 27 29  1  0
 27 30  1  0
 26 31  2  0
 31 20  1  0
M  END
> <assay_chembl_id>
CHEMBL4477863

> <assay_description>
Antiproliferative activity against human 22Rv1 cells after 96 hrs by propidium iodide staining based fluorescence 2D monolayer assay

> <document_journal>
Eur J Med Chem

> <molecule_chembl_id>
CHEMBL4545163

> <standard_value>
63580

> <IC50_uM>
63.58

> <Activity>
No

> <Canonical_Smiles>
CC1(C)C(=O)N(c2ccc(C(F)(F)F)cc2)C(=O)N1c1ccc(C#N)c(C(F)(F)F)c1

$$$$

  SciTegic03142313312D

 32 34  0  0  0  0            999 V2000
    5.5447   -0.6194    0.0000 C   0  0
    4.9531   -1.9978    0.0000 C   0  0
    5.8147   -3.2256    0.0000 C   0  0
    3.9511   -0.8815    0.0000 C   0  0
    4.2566    0.5871    0.0000 O   0  0
    2.5987   -1.5004    0.0000 N   0  0
    1.2990   -0.7500    0.0000 C   0  0
    1.2990    0.7500    0.0000 C   0  0
    0.0000    1.5000    0.0000 C   0  0
   -1.2990    0.7500    0.0000 C   0  0
   -1.2990   -0.7500    0.0000 C   0  0
   -2.5988   -1.5004    0.0000 C   0  0
   -3.8983   -0.7513    0.0000 F   0  0
   -2.5983   -3.0004    0.0000 F   0  0
   -3.8975   -2.2510    0.0000 F   0  0
    0.0000   -1.5000    0.0000 C   0  0
    2.7343   -2.9815    0.0000 C   0  0
    1.6120   -3.9767    0.0000 O   0  0
    4.2010   -3.2956    0.0000 N   0  0
    4.8092   -4.6676    0.0000 C   0  0
    4.0212   -5.9381    0.0000 C   0  0
    4.7306   -7.2598    0.0000 C   0  0
    6.2299   -7.3062    0.0000 C   0  0
    6.9369   -8.6301    0.0000 N   0  3
    6.1452   -9.9041    0.0000 O   0  0
    8.4361   -8.6792    0.0000 O   0  5
    7.0198   -6.0311    0.0000 C   0  0
    8.5199   -6.0776    0.0000 C   0  0
    9.2301   -7.3988    0.0000 F   0  0
    9.3094   -4.8021    0.0000 F   0  0
   10.0192   -6.1233    0.0000 F   0  0
    6.3104   -4.7094    0.0000 C   0  0
  1  2  1  0
  2  3  1  0
  2  4  1  0
  4  5  2  0
  4  6  1  0
  6  7  1  0
  7  8  2  0
  8  9  1  0
  9 10  2  0
 10 11  1  0
 11 12  1  0
 12 13  1  0
 12 14  1  0
 12 15  1  0
 11 16  2  0
 16  7  1  0
  6 17  1  0
 17 18  2  0
 17 19  1  0
 19  2  1  0
 19 20  1  0
 20 21  2  0
 21 22  1  0
 22 23  2  0
 23 24  1  0
 24 25  2  0
 24 26  1  0
 23 27  1  0
 27 28  1  0
 28 29  1  0
 28 30  1  0
 28 31  1  0
 27 32  2  0
 32 20  1  0
M  CHG  2  24   1  26  -1
M  END
> <assay_chembl_id>
CHEMBL4477863

> <assay_description>
Antiproliferative activity against human 22Rv1 cells after 96 hrs by propidium iodide staining based fluorescence 2D monolayer assay

> <document_journal>
Eur J Med Chem

> <molecule_chembl_id>
CHEMBL4517698

> <standard_value>
100000

> <IC50_uM>
100

> <Activity>
No

> <Canonical_Smiles>
CC1(C)C(=O)N(c2cccc(C(F)(F)F)c2)C(=O)N1c1ccc([N+](=O)[O-])c(C(F)(F)F)c1

$$$$

  SciTegic03142313312D

 31 33  0  0  0  0            999 V2000
    5.5447   -0.6194    0.0000 C   0  0
    4.9531   -1.9978    0.0000 C   0  0
    5.8147   -3.2256    0.0000 C   0  0
    3.9511   -0.8815    0.0000 C   0  0
    4.2566    0.5871    0.0000 O   0  0
    2.5987   -1.5004    0.0000 N   0  0
    1.2990   -0.7500    0.0000 C   0  0
    1.2990    0.7500    0.0000 C   0  0
    0.0000    1.5000    0.0000 C   0  0
   -1.2990    0.7500    0.0000 C   0  0
   -2.5988    1.5004    0.0000 C   0  0
   -2.5998    3.0004    0.0000 F   0  0
   -3.8976    0.7500    0.0000 F   0  0
   -3.8982    2.2498    0.0000 F   0  0
   -1.2990   -0.7500    0.0000 C   0  0
    0.0000   -1.5000    0.0000 C   0  0
    2.7343   -2.9815    0.0000 C   0  0
    1.6120   -3.9767    0.0000 O   0  0
    4.2010   -3.2956    0.0000 N   0  0
    4.8092   -4.6676    0.0000 C   0  0
    6.3104   -4.7094    0.0000 C   0  0
    7.0198   -6.0311    0.0000 C   0  0
    6.2299   -7.3062    0.0000 C   0  0
    6.9396   -8.6286    0.0000 C   0  0
    7.6490   -9.9503    0.0000 N   0  0
    4.7306   -7.2597    0.0000 C   0  0
    4.0212   -5.9381    0.0000 C   0  0
    2.5211   -5.8898    0.0000 C   0  0
    1.7289   -7.1635    0.0000 F   0  0
    1.8138   -4.5671    0.0000 F   0  0
    1.0219   -5.8408    0.0000 F   0  0
  1  2  1  0
  2  3  1  0
  2  4  1  0
  4  5  2  0
  4  6  1  0
  6  7  1  0
  7  8  2  0
  8  9  1  0
  9 10  2  0
 10 11  1  0
 11 12  1  0
 11 13  1  0
 11 14  1  0
 10 15  1  0
 15 16  2  0
 16  7  1  0
  6 17  1  0
 17 18  2  0
 17 19  1  0
 19  2  1  0
 19 20  1  0
 20 21  2  0
 21 22  1  0
 22 23  2  0
 23 24  1  0
 24 25  3  0
 23 26  1  0
 26 27  2  0
 27 20  1  0
 27 28  1  0
 28 29  1  0
 28 30  1  0
 28 31  1  0
M  END
> <assay_chembl_id>
CHEMBL4477863

> <assay_description>
Antiproliferative activity against human 22Rv1 cells after 96 hrs by propidium iodide staining based fluorescence 2D monolayer assay

> <document_journal>
Eur J Med Chem

> <molecule_chembl_id>
CHEMBL4533483

> <standard_value>
100000

> <IC50_uM>
100

> <Activity>
No

> <Canonical_Smiles>
CC1(C)C(=O)N(c2ccc(C(F)(F)F)cc2)C(=O)N1c1ccc(C#N)cc1C(F)(F)F

$$$$

  SciTegic03142313312D

 31 33  0  0  0  0            999 V2000
    5.5447   -0.6194    0.0000 C   0  0
    4.9531   -1.9978    0.0000 C   0  0
    5.8147   -3.2256    0.0000 C   0  0
    3.9511   -0.8815    0.0000 C   0  0
    4.2566    0.5871    0.0000 O   0  0
    2.5987   -1.5004    0.0000 N   0  0
    1.2990   -0.7500    0.0000 C   0  0
    1.2990    0.7500    0.0000 C   0  0
    0.0000    1.5000    0.0000 C   0  0
   -1.2990    0.7500    0.0000 C   0  0
   -1.2990   -0.7500    0.0000 C   0  0
   -2.5988   -1.5004    0.0000 C   0  0
   -3.8983   -0.7513    0.0000 F   0  0
   -2.5983   -3.0004    0.0000 F   0  0
   -3.8975   -2.2510    0.0000 F   0  0
    0.0000   -1.5000    0.0000 C   0  0
    2.7343   -2.9815    0.0000 C   0  0
    1.6120   -3.9767    0.0000 O   0  0
    4.2010   -3.2956    0.0000 N   0  0
    4.8092   -4.6676    0.0000 C   0  0
    6.3104   -4.7094    0.0000 C   0  0
    7.0198   -6.0311    0.0000 C   0  0
    6.2299   -7.3062    0.0000 C   0  0
    6.9396   -8.6286    0.0000 C   0  0
    7.6490   -9.9503    0.0000 N   0  0
    4.7306   -7.2597    0.0000 C   0  0
    4.0212   -5.9381    0.0000 C   0  0
    2.5211   -5.8898    0.0000 C   0  0
    1.7289   -7.1635    0.0000 F   0  0
    1.8138   -4.5671    0.0000 F   0  0
    1.0219   -5.8408    0.0000 F   0  0
  1  2  1  0
  2  3  1  0
  2  4  1  0
  4  5  2  0
  4  6  1  0
  6  7  1  0
  7  8  2  0
  8  9  1  0
  9 10  2  0
 10 11  1  0
 11 12  1  0
 12 13  1  0
 12 14  1  0
 12 15  1  0
 11 16  2  0
 16  7  1  0
  6 17  1  0
 17 18  2  0
 17 19  1  0
 19  2  1  0
 19 20  1  0
 20 21  2  0
 21 22  1  0
 22 23  2  0
 23 24  1  0
 24 25  3  0
 23 26  1  0
 26 27  2  0
 27 20  1  0
 27 28  1  0
 28 29  1  0
 28 30  1  0
 28 31  1  0
M  END
> <assay_chembl_id>
CHEMBL4477863

> <assay_description>
Antiproliferative activity against human 22Rv1 cells after 96 hrs by propidium iodide staining based fluorescence 2D monolayer assay

> <document_journal>
Eur J Med Chem

> <molecule_chembl_id>
CHEMBL4552645

> <standard_value>
59310

> <IC50_uM>
59.31

> <Activity>
No

> <Canonical_Smiles>
CC1(C)C(=O)N(c2cccc(C(F)(F)F)c2)C(=O)N1c1ccc(C#N)cc1C(F)(F)F

$$$$

  SciTegic03142313312D

 29 31  0  0  0  0            999 V2000
    5.5447   -0.6194    0.0000 C   0  0
    4.9531   -1.9978    0.0000 C   0  0
    5.8147   -3.2256    0.0000 C   0  0
    3.9511   -0.8815    0.0000 C   0  0
    4.2566    0.5871    0.0000 O   0  0
    2.5987   -1.5004    0.0000 N   0  0
    1.2990   -0.7500    0.0000 C   0  0
    1.2990    0.7500    0.0000 C   0  0
    0.0000    1.5000    0.0000 C   0  0
   -1.2990    0.7500    0.0000 C   0  0
   -2.5988    1.5004    0.0000 C   0  0
   -2.5998    3.0004    0.0000 F   0  0
   -3.8976    0.7500    0.0000 F   0  0
   -3.8982    2.2498    0.0000 F   0  0
   -1.2990   -0.7500    0.0000 C   0  0
    0.0000   -1.5000    0.0000 C   0  0
    2.7343   -2.9815    0.0000 C   0  0
    1.6120   -3.9767    0.0000 O   0  0
    4.2010   -3.2956    0.0000 N   0  0
    4.8092   -4.6676    0.0000 C   0  0
    4.0212   -5.9381    0.0000 C   0  0
    4.7306   -7.2598    0.0000 C   0  0
    6.2299   -7.3062    0.0000 C   0  0
    7.0198   -6.0311    0.0000 C   0  0
    8.5199   -6.0776    0.0000 C   0  0
    9.2301   -7.3988    0.0000 F   0  0
    9.3094   -4.8021    0.0000 F   0  0
   10.0192   -6.1233    0.0000 F   0  0
    6.3104   -4.7094    0.0000 C   0  0
  1  2  1  0
  2  3  1  0
  2  4  1  0
  4  5  2  0
  4  6  1  0
  6  7  1  0
  7  8  2  0
  8  9  1  0
  9 10  2  0
 10 11  1  0
 11 12  1  0
 11 13  1  0
 11 14  1  0
 10 15  1  0
 15 16  2  0
 16  7  1  0
  6 17  1  0
 17 18  2  0
 17 19  1  0
 19  2  1  0
 19 20  1  0
 20 21  2  0
 21 22  1  0
 22 23  2  0
 23 24  1  0
 24 25  1  0
 25 26  1  0
 25 27  1  0
 25 28  1  0
 24 29  2  0
 29 20  1  0
M  END
> <assay_chembl_id>
CHEMBL4477863

> <assay_description>
Antiproliferative activity against human 22Rv1 cells after 96 hrs by propidium iodide staining based fluorescence 2D monolayer assay

> <document_journal>
Eur J Med Chem

> <molecule_chembl_id>
CHEMBL4589615

> <standard_value>
100000

> <IC50_uM>
100

> <Activity>
No

> <Canonical_Smiles>
CC1(C)C(=O)N(c2ccc(C(F)(F)F)cc2)C(=O)N1c1cccc(C(F)(F)F)c1

$$$$

  SciTegic03142313312D

 29 31  0  0  0  0            999 V2000
    5.5447   -0.6194    0.0000 C   0  0
    4.9531   -1.9978    0.0000 C   0  0
    5.8147   -3.2256    0.0000 C   0  0
    3.9511   -0.8815    0.0000 C   0  0
    4.2566    0.5871    0.0000 O   0  0
    2.5987   -1.5004    0.0000 N   0  0
    1.2990   -0.7500    0.0000 C   0  0
    1.2990    0.7500    0.0000 C   0  0
    0.0000    1.5000    0.0000 C   0  0
   -1.2990    0.7500    0.0000 C   0  0
   -1.2990   -0.7500    0.0000 C   0  0
   -2.5988   -1.5004    0.0000 C   0  0
   -3.8983   -0.7513    0.0000 F   0  0
   -2.5983   -3.0004    0.0000 F   0  0
   -3.8975   -2.2510    0.0000 F   0  0
    0.0000   -1.5000    0.0000 C   0  0
    2.7343   -2.9815    0.0000 C   0  0
    1.6120   -3.9767    0.0000 O   0  0
    4.2010   -3.2956    0.0000 N   0  0
    4.8092   -4.6676    0.0000 C   0  0
    4.0212   -5.9381    0.0000 C   0  0
    4.7306   -7.2598    0.0000 C   0  0
    6.2299   -7.3062    0.0000 C   0  0
    7.0198   -6.0311    0.0000 C   0  0
    8.5199   -6.0776    0.0000 C   0  0
    9.2301   -7.3988    0.0000 F   0  0
    9.3094   -4.8021    0.0000 F   0  0
   10.0192   -6.1233    0.0000 F   0  0
    6.3104   -4.7094    0.0000 C   0  0
  1  2  1  0
  2  3  1  0
  2  4  1  0
  4  5  2  0
  4  6  1  0
  6  7  1  0
  7  8  2  0
  8  9  1  0
  9 10  2  0
 10 11  1  0
 11 12  1  0
 12 13  1  0
 12 14  1  0
 12 15  1  0
 11 16  2  0
 16  7  1  0
  6 17  1  0
 17 18  2  0
 17 19  1  0
 19  2  1  0
 19 20  1  0
 20 21  2  0
 21 22  1  0
 22 23  2  0
 23 24  1  0
 24 25  1  0
 25 26  1  0
 25 27  1  0
 25 28  1  0
 24 29  2  0
 29 20  1  0
M  END
> <assay_chembl_id>
CHEMBL4477863

> <assay_description>
Antiproliferative activity against human 22Rv1 cells after 96 hrs by propidium iodide staining based fluorescence 2D monolayer assay

> <document_journal>
Eur J Med Chem

> <molecule_chembl_id>
CHEMBL4529395

> <standard_value>
60680

> <IC50_uM>
60.68

> <Activity>
No

> <Canonical_Smiles>
CC1(C)C(=O)N(c2cccc(C(F)(F)F)c2)C(=O)N1c1cccc(C(F)(F)F)c1

$$$$

  SciTegic03142313312D

 29 31  0  0  0  0            999 V2000
    5.5447   -0.6194    0.0000 C   0  0
    4.9531   -1.9978    0.0000 C   0  0
    5.8147   -3.2256    0.0000 C   0  0
    3.9511   -0.8815    0.0000 C   0  0
    4.2566    0.5871    0.0000 O   0  0
    2.5987   -1.5004    0.0000 N   0  0
    1.2990   -0.7500    0.0000 C   0  0
    1.2990    0.7500    0.0000 C   0  0
    0.0000    1.5000    0.0000 C   0  0
   -1.2990    0.7500    0.0000 C   0  0
   -1.2990   -0.7500    0.0000 C   0  0
   -2.5988   -1.5004    0.0000 C   0  0
   -3.8983   -0.7513    0.0000 F   0  0
   -2.5983   -3.0004    0.0000 F   0  0
   -3.8975   -2.2510    0.0000 F   0  0
    0.0000   -1.5000    0.0000 C   0  0
    2.7343   -2.9815    0.0000 C   0  0
    1.6120   -3.9767    0.0000 O   0  0
    4.2010   -3.2956    0.0000 N   0  0
    4.8092   -4.6676    0.0000 C   0  0
    4.0212   -5.9381    0.0000 C   0  0
    4.7306   -7.2598    0.0000 C   0  0
    6.2299   -7.3062    0.0000 C   0  0
    6.9397   -8.6286    0.0000 C   0  0
    6.1506   -9.9043    0.0000 F   0  0
    8.4389   -8.6746    0.0000 F   0  0
    7.6497   -9.9499    0.0000 F   0  0
    7.0198   -6.0311    0.0000 C   0  0
    6.3104   -4.7094    0.0000 C   0  0
  1  2  1  0
  2  3  1  0
  2  4  1  0
  4  5  2  0
  4  6  1  0
  6  7  1  0
  7  8  2  0
  8  9  1  0
  9 10  2  0
 10 11  1  0
 11 12  1  0
 12 13  1  0
 12 14  1  0
 12 15  1  0
 11 16  2  0
 16  7  1  0
  6 17  1  0
 17 18  2  0
 17 19  1  0
 19  2  1  0
 19 20  1  0
 20 21  2  0
 21 22  1  0
 22 23  2  0
 23 24  1  0
 24 25  1  0
 24 26  1  0
 24 27  1  0
 23 28  1  0
 28 29  2  0
 29 20  1  0
M  END
> <assay_chembl_id>
CHEMBL4477863

> <assay_description>
Antiproliferative activity against human 22Rv1 cells after 96 hrs by propidium iodide staining based fluorescence 2D monolayer assay

> <document_journal>
Eur J Med Chem

> <molecule_chembl_id>
CHEMBL4584549

> <standard_value>
92470

> <IC50_uM>
92.47

> <Activity>
No

> <Canonical_Smiles>
CC1(C)C(=O)N(c2cccc(C(F)(F)F)c2)C(=O)N1c1ccc(C(F)(F)F)cc1

$$$$

  SciTegic03142313312D

 29 31  0  0  0  0            999 V2000
    5.5447   -0.6194    0.0000 C   0  0
    4.9531   -1.9978    0.0000 C   0  0
    5.8147   -3.2256    0.0000 C   0  0
    3.9511   -0.8815    0.0000 C   0  0
    4.2566    0.5871    0.0000 O   0  0
    2.5987   -1.5004    0.0000 N   0  0
    1.2990   -0.7500    0.0000 C   0  0
    1.2990    0.7500    0.0000 C   0  0
    0.0000    1.5000    0.0000 C   0  0
   -1.2990    0.7500    0.0000 C   0  0
   -1.2990   -0.7500    0.0000 C   0  0
   -2.5988   -1.5004    0.0000 C   0  0
   -3.8983   -0.7513    0.0000 F   0  0
   -2.5983   -3.0004    0.0000 F   0  0
   -3.8975   -2.2510    0.0000 F   0  0
    0.0000   -1.5000    0.0000 C   0  0
    2.7343   -2.9815    0.0000 C   0  0
    1.6120   -3.9767    0.0000 O   0  0
    4.2010   -3.2956    0.0000 N   0  0
    4.8092   -4.6676    0.0000 C   0  0
    6.3104   -4.7094    0.0000 C   0  0
    7.0198   -6.0311    0.0000 C   0  0
    6.2299   -7.3062    0.0000 C   0  0
    4.7306   -7.2597    0.0000 C   0  0
    4.0212   -5.9381    0.0000 C   0  0
    2.5211   -5.8898    0.0000 C   0  0
    1.7289   -7.1635    0.0000 F   0  0
    1.8138   -4.5671    0.0000 F   0  0
    1.0219   -5.8408    0.0000 F   0  0
  1  2  1  0
  2  3  1  0
  2  4  1  0
  4  5  2  0
  4  6  1  0
  6  7  1  0
  7  8  2  0
  8  9  1  0
  9 10  2  0
 10 11  1  0
 11 12  1  0
 12 13  1  0
 12 14  1  0
 12 15  1  0
 11 16  2  0
 16  7  1  0
  6 17  1  0
 17 18  2  0
 17 19  1  0
 19  2  1  0
 19 20  1  0
 20 21  2  0
 21 22  1  0
 22 23  2  0
 23 24  1  0
 24 25  2  0
 25 20  1  0
 25 26  1  0
 26 27  1  0
 26 28  1  0
 26 29  1  0
M  END
> <assay_chembl_id>
CHEMBL4477863

> <assay_description>
Antiproliferative activity against human 22Rv1 cells after 96 hrs by propidium iodide staining based fluorescence 2D monolayer assay

> <document_journal>
Eur J Med Chem

> <molecule_chembl_id>
CHEMBL4556561

> <standard_value>
100000

> <IC50_uM>
100

> <Activity>
No

> <Canonical_Smiles>
CC1(C)C(=O)N(c2cccc(C(F)(F)F)c2)C(=O)N1c1ccccc1C(F)(F)F

$$$$

  SciTegic03142313312D

 32 34  0  0  0  0            999 V2000
    5.5447   -0.6194    0.0000 C   0  0
    4.9531   -1.9978    0.0000 C   0  0
    5.8147   -3.2256    0.0000 C   0  0
    3.9511   -0.8815    0.0000 C   0  0
    4.2566    0.5871    0.0000 O   0  0
    2.5987   -1.5004    0.0000 N   0  0
    1.2990   -0.7500    0.0000 C   0  0
    1.2990    0.7500    0.0000 C   0  0
    0.0000    1.5000    0.0000 C   0  0
   -1.2990    0.7500    0.0000 C   0  0
   -2.5988    1.5004    0.0000 C   0  0
   -2.5998    3.0004    0.0000 F   0  0
   -3.8976    0.7500    0.0000 F   0  0
   -3.8982    2.2498    0.0000 F   0  0
   -1.2990   -0.7500    0.0000 C   0  0
    0.0000   -1.5000    0.0000 C   0  0
    2.7343   -2.9815    0.0000 C   0  0
    1.6120   -3.9767    0.0000 O   0  0
    4.2010   -3.2956    0.0000 N   0  0
    4.8092   -4.6676    0.0000 C   0  0
    4.0212   -5.9381    0.0000 C   0  0
    4.7306   -7.2598    0.0000 C   0  0
    6.2299   -7.3062    0.0000 C   0  0
    6.9369   -8.6301    0.0000 N   0  3
    6.1452   -9.9041    0.0000 O   0  0
    8.4361   -8.6792    0.0000 O   0  5
    7.0198   -6.0311    0.0000 C   0  0
    8.5199   -6.0776    0.0000 C   0  0
    9.2301   -7.3988    0.0000 F   0  0
    9.3094   -4.8021    0.0000 F   0  0
   10.0192   -6.1233    0.0000 F   0  0
    6.3104   -4.7094    0.0000 C   0  0
  1  2  1  0
  2  3  1  0
  2  4  1  0
  4  5  2  0
  4  6  1  0
  6  7  1  0
  7  8  2  0
  8  9  1  0
  9 10  2  0
 10 11  1  0
 11 12  1  0
 11 13  1  0
 11 14  1  0
 10 15  1  0
 15 16  2  0
 16  7  1  0
  6 17  1  0
 17 18  2  0
 17 19  1  0
 19  2  1  0
 19 20  1  0
 20 21  2  0
 21 22  1  0
 22 23  2  0
 23 24  1  0
 24 25  2  0
 24 26  1  0
 23 27  1  0
 27 28  1  0
 28 29  1  0
 28 30  1  0
 28 31  1  0
 27 32  2  0
 32 20  1  0
M  CHG  2  24   1  26  -1
M  END
> <assay_chembl_id>
CHEMBL4477895

> <assay_description>
Antiproliferative activity against human 22Rv1 cells assessed as relative inhibition after 96 hrs by propidium iodide staining based fluorescence 2D monolayer assay

> <document_journal>
Eur J Med Chem

> <molecule_chembl_id>
CHEMBL4577418

> <standard_value>
41632

> <IC50_uM>
41.632

> <Activity>
No

> <Canonical_Smiles>
CC1(C)C(=O)N(c2ccc(C(F)(F)F)cc2)C(=O)N1c1ccc([N+](=O)[O-])c(C(F)(F)F)c1

$$$$

  SciTegic03142313312D

 36 42  0  0  1  0            999 V2000
    2.5981    0.0000    0.0000 C   0  0
    1.2990   -0.7500    0.0000 C   0  0  2  0  0  0
    1.2990    0.7500    0.0000 C   0  0
    0.0000    1.5000    0.0000 C   0  0
   -1.2990    0.7500    0.0000 C   0  0  2  0  0  0
   -2.5973    1.5031    0.0000 O   0  0
   -2.5951    3.0039    0.0000 C   0  0
   -3.8933    3.7570    0.0000 C   0  0
   -3.8934    5.2570    0.0000 C   0  0
   -5.1924    6.0070    0.0000 C   0  0
   -6.4915    5.2571    0.0000 C   0  0
   -6.4915    3.7571    0.0000 N   0  0
   -5.1925    3.0070    0.0000 C   0  0
   -1.2990   -0.7500    0.0000 C   0  0
    0.0000   -1.5000    0.0000 C   0  0
    0.0000   -3.0000    0.0000 C   0  0
    1.2990   -3.7500    0.0000 C   0  0
    2.5981   -3.0000    0.0000 C   0  0  2  0  0  0
    2.5981   -1.5000    0.0000 C   0  0  2  0  0  0
    3.8971   -0.7500    0.0000 C   0  0
    5.1962   -1.5000    0.0000 C   0  0
    5.1962   -3.0000    0.0000 C   0  0  2  0  0  0
    6.5611   -2.3779    0.0000 C   0  0
    6.3238   -3.9802    0.0000 C   0  0
    7.7879   -3.6507    0.0000 N   0  0
    8.8048   -4.7373    0.0000 C   0  0
   10.1533   -4.0803    0.0000 N   0  0
    9.9451   -2.5957    0.0000 C   0  0
   10.9098   -1.4470    0.0000 C   0  0
   10.3974   -0.0373    0.0000 C   0  0
    8.9203    0.2239    0.0000 C   0  0
    7.9556   -0.9247    0.0000 C   0  0
    8.4680   -2.3345    0.0000 C   0  0
    5.7224   -5.3544    0.0000 C   0  0
    4.2297   -5.2071    0.0000 C   0  0
    3.8971   -3.7500    0.0000 C   0  0  1  0  0  0
  2  1  1  1
  2  3  1  0
  3  4  1  0
  4  5  1  0
  5  6  1  1
  6  7  1  0
  7  8  1  0
  8  9  2  0
  9 10  1  0
 10 11  2  0
 11 12  1  0
 12 13  2  0
 13  8  1  0
  5 14  1  0
 14 15  1  0
 15  2  1  0
 15 16  2  0
 16 17  1  0
 18 17  1  6
 18 19  1  0
 19  2  1  0
 19 20  1  1
 20 21  1  0
 21 22  1  0
 22 23  1  1
 22 24  1  0
 24 25  1  0
 25 26  1  0
 26 27  2  0
 27 28  1  0
 28 29  2  0
 29 30  1  0
 30 31  2  0
 31 32  1  0
 32 33  2  0
 33 28  1  0
 33 25  1  0
 24 34  2  0
 34 35  1  0
 36 35  1  1
 36 18  1  0
 36 22  1  0
M  END
> <assay_chembl_id>
CHEMBL4479405

> <assay_description>
Antiproliferative activity against human CWR22Rv1 cells after 7 days by MTT assay

> <document_journal>
ACS Med Chem Lett

> <molecule_chembl_id>
CHEMBL4581336

> <standard_value>
810

> <IC50_uM>
0.81

> <Activity>
Yes

> <Canonical_Smiles>
C[C@]12CC[C@H](OCc3cccnc3)CC1=CC[C@@H]1[C@@H]2CC[C@]2(C)C(n3cnc4ccccc43)=CC[C@@H]12

$$$$

  SciTegic03142313312D

 28 33  0  0  1  0            999 V2000
    2.6640   -0.1280    0.0000 C   0  0
    1.2990   -0.7500    0.0000 C   0  0  2  0  0  0
    1.2990    0.7500    0.0000 C   0  0
    0.0000    1.5000    0.0000 C   0  0
   -1.2990    0.7500    0.0000 C   0  0  2  0  0  0
   -2.5981    1.5000    0.0000 C   0  0
   -2.5981    3.0000    0.0000 C   0  0
   -3.8972    3.7500    0.0000 C   0  0
   -5.1962    3.0000    0.0000 C   0  0
   -6.4952    3.7500    0.0000 O   0  0
   -5.1962    1.5000    0.0000 C   0  0
   -3.8971    0.7500    0.0000 C   0  0
   -3.8971   -0.7500    0.0000 C   0  0
   -2.5981   -1.5000    0.0000 C   0  0
   -1.2990   -0.7500    0.0000 C   0  0  1  0  0  0
    0.0000   -1.5000    0.0000 C   0  0  2  0  0  0
    0.3326   -2.9571    0.0000 C   0  0
    1.8253   -3.1044    0.0000 C   0  0
    2.4266   -1.7302    0.0000 C   0  0
    3.8908   -1.4007    0.0000 N   0  0
    4.9077   -2.4873    0.0000 C   0  0
    6.2562   -1.8303    0.0000 N   0  0
    6.0479   -0.3457    0.0000 C   0  0
    7.0127    0.8030    0.0000 C   0  0
    6.5003    2.2127    0.0000 C   0  0
    5.0232    2.4739    0.0000 C   0  0
    4.0585    1.3253    0.0000 C   0  0
    4.5709   -0.0845    0.0000 C   0  0
  2  1  1  1
  2  3  1  0
  3  4  1  0
  5  4  1  1
  5  6  1  0
  6  7  2  0
  7  8  1  0
  8  9  2  0
  9 10  1  0
  9 11  1  0
 11 12  2  0
 12  6  1  0
 12 13  1  0
 13 14  1  0
 15 14  1  6
 15  5  1  0
 15 16  1  0
 16  2  1  0
 16 17  1  1
 17 18  1  0
 18 19  2  0
 19  2  1  0
 19 20  1  0
 20 21  1  0
 21 22  2  0
 22 23  1  0
 23 24  2  0
 24 25  1  0
 25 26  2  0
 26 27  1  0
 27 28  2  0
 28 23  1  0
 28 20  1  0
M  END
> <assay_chembl_id>
CHEMBL4479405

> <assay_description>
Antiproliferative activity against human CWR22Rv1 cells after 7 days by MTT assay

> <document_journal>
ACS Med Chem Lett

> <molecule_chembl_id>
CHEMBL4552506

> <standard_value>
500

> <IC50_uM>
0.5

> <Activity>
Yes

> <Canonical_Smiles>
C[C@]12CC[C@@H]3c4ccc(O)cc4CC[C@H]3[C@@H]1CC=C2n1cnc2ccccc21

$$$$

  SciTegic03142313312D

 24 26  0  0  0  0            999 V2000
    7.8010   -2.9850    0.0000 C   0  0
    7.7980   -1.4850    0.0000 O   0  0
    6.4972   -0.7364    0.0000 C   0  0
    5.2007   -1.4909    0.0000 C   0  0
    3.8990   -0.7455    0.0000 C   0  0
    2.6003   -1.4977    0.0000 N   0  0
    1.2990   -0.7500    0.0000 C   0  0
    1.2990    0.7500    0.0000 C   0  0
    0.0000    1.5000    0.0000 C   0  0
   -1.2990    0.7500    0.0000 N   0  0
   -1.2990   -0.7500    0.0000 C   0  0
   -2.5981   -1.5000    0.0000 C   0  0
   -2.5981   -3.0000    0.0000 C   0  0
   -1.2990   -3.7500    0.0000 C   0  0
   -1.2990   -5.2500    0.0000 Br  0  0
    0.0000   -3.0000    0.0000 C   0  0
    0.0000   -1.5000    0.0000 C   0  0
    3.8939    0.7546    0.0000 C   0  0
    5.1903    1.5091    0.0000 C   0  0
    5.1821    3.0099    0.0000 O   0  0
    3.8794    3.7535    0.0000 C   0  0
    6.4920    0.7636    0.0000 C   0  0
    7.7907    1.5158    0.0000 O   0  0
    9.0912    0.7685    0.0000 C   0  0
  1  2  1  0
  2  3  1  0
  3  4  2  0
  4  5  1  0
  5  6  1  0
  6  7  1  0
  7  8  2  0
  8  9  1  0
  9 10  2  0
 10 11  1  0
 11 12  2  0
 12 13  1  0
 13 14  2  0
 14 15  1  0
 14 16  1  0
 16 17  2  0
 17  7  1  0
 17 11  1  0
  5 18  2  0
 18 19  1  0
 19 20  1  0
 20 21  1  0
 19 22  2  0
 22  3  1  0
 22 23  1  0
 23 24  1  0
M  END
> <assay_chembl_id>
CHEMBL4481515

> <assay_description>
Cytotoxicity against human 22Rv1 cells after 72 hrs by MTS assay

> <document_journal>
J Med Chem

> <molecule_chembl_id>
CHEMBL4443342

> <standard_value>
170

> <IC50_uM>
0.17

> <Activity>
Yes

> <Canonical_Smiles>
COc1cc(Nc2ccnc3ccc(Br)cc23)cc(OC)c1OC

$$$$

  SciTegic03142313312D

 32 36  0  0  0  0            999 V2000
    9.0957   -0.7328    0.0000 O   0  0
    7.7980   -1.4850    0.0000 C   0  0
    6.4972   -0.7364    0.0000 C   0  0
    5.2007   -1.4909    0.0000 C   0  0
    3.8990   -0.7455    0.0000 C   0  0
    2.6003   -1.4977    0.0000 C   0  0
    1.2990   -0.7500    0.0000 C   0  0
    1.2990    0.7500    0.0000 N   0  0
    0.0000    1.5000    0.0000 N   0  0
   -1.2990    0.7500    0.0000 C   0  0
   -2.5981    1.5000    0.0000 O   0  0
   -1.2990   -0.7500    0.0000 C   0  0
   -2.5981   -1.5000    0.0000 C   0  0
   -2.5981   -3.0000    0.0000 C   0  0
   -1.2990   -3.7500    0.0000 C   0  0
    0.0000   -3.0000    0.0000 C   0  0
    0.0000   -1.5000    0.0000 C   0  0
    3.8939    0.7546    0.0000 C   0  0
    5.1903    1.5091    0.0000 C   0  0
    6.4920    0.7636    0.0000 C   0  0
    7.7884    1.5181    0.0000 F   0  0
    7.8010   -2.9858    0.0000 N   0  0
    9.1001   -3.7359    0.0000 C   0  0
    9.1001   -5.2359    0.0000 C   0  0
    7.8010   -5.9859    0.0000 N   0  0
    7.7979   -7.4868    0.0000 C   0  0
    9.0957   -8.2390    0.0000 O   0  0
    6.4971   -8.2353    0.0000 C   0  0
    5.8219   -9.4863    0.0000 C   0  0
    5.0765   -8.1846    0.0000 C   0  0
    6.5020   -5.2359    0.0000 C   0  0
    6.5020   -3.7359    0.0000 C   0  0
  1  2  2  0
  2  3  1  0
  3  4  2  0
  4  5  1  0
  5  6  1  0
  6  7  1  0
  7  8  2  0
  8  9  1  0
  9 10  1  0
 10 11  2  0
 10 12  1  0
 12 13  2  0
 13 14  1  0
 14 15  2  0
 15 16  1  0
 16 17  2  0
 17  7  1  0
 17 12  1  0
  5 18  2  0
 18 19  1  0
 19 20  2  0
 20  3  1  0
 20 21  1  0
  2 22  1  0
 22 23  1  0
 23 24  1  0
 24 25  1  0
 25 26  1  0
 26 27  2  0
 26 28  1  0
 28 29  1  0
 29 30  1  0
 30 28  1  0
 25 31  1  0
 31 32  1  0
 32 22  1  0
M  END
> <assay_chembl_id>
CHEMBL4606728

> <assay_description>
Growth inhibition of human 22Rv1 cells after 5 days by SRB assay

> <document_journal>
J Med Chem

> <molecule_chembl_id>
CHEMBL521686

> <standard_value>
33800

> <IC50_uM>
33.8

> <Activity>
No

> <Canonical_Smiles>
O=C(c1cc(Cc2n[nH]c(=O)c3ccccc23)ccc1F)N1CCN(C(=O)C2CC2)CC1

$$$$

  SciTegic03142313312D

 14 13  0  0  0  0            999 V2000
    1.3000    2.2500    0.0000 C   0  0
    1.3000    0.7500    0.0000 S   0  0
    0.0007    0.0004    0.0000 O   0  0
    0.0011    1.5002    0.0000 O   0  0
    2.6000    0.0000    0.0000 O   0  0
    3.9000    0.7500    0.0000 C   0  0
    5.2000    0.0000    0.0000 C   0  0
    6.5000    0.7500    0.0000 C   0  0
    7.7999    0.0000    0.0000 C   0  0
    9.0999    0.7500    0.0000 O   0  0
   10.3999    0.0000    0.0000 S   0  0
   10.3999   -1.5000    0.0000 C   0  0
   11.6992    0.7496    0.0000 O   0  0
   11.6988   -0.7502    0.0000 O   0  0
  1  2  1  0
  2  3  2  0
  2  4  2  0
  2  5  1  0
  5  6  1  0
  6  7  1  0
  7  8  1  0
  8  9  1  0
  9 10  1  0
 10 11  1  0
 11 12  1  0
 11 13  2  0
 11 14  2  0
M  END
> <assay_chembl_id>
CHEMBL4606728

> <assay_description>
Growth inhibition of human 22Rv1 cells after 5 days by SRB assay

> <document_journal>
J Med Chem

> <molecule_chembl_id>
CHEMBL820

> <standard_value>
24300

> <IC50_uM>
24.3

> <Activity>
No

> <Canonical_Smiles>
CS(=O)(=O)OCCCCOS(C)(=O)=O

$$$$

  SciTegic03142313312D

 55 61  0  0  0  0            999 V2000
    7.7964    1.5111    0.0000 C   0  0
    6.4978    0.7603    0.0000 O   0  0
    6.4978   -0.7405    0.0000 C   0  0
    7.7984   -1.4879    0.0000 C   0  0
    7.8015   -2.9879    0.0000 C   0  0
    6.5040   -3.7405    0.0000 C   0  0
    5.2034   -2.9932    0.0000 C   0  0
    5.2003   -1.4932    0.0000 C   0  0
    3.8990   -0.7455    0.0000 S   0  0
    3.8964    0.7545    0.0000 O   0  0
    2.5988    0.0025    0.0000 O   0  0
    2.6003   -1.4977    0.0000 N   0  0
    1.2990   -0.7500    0.0000 C   0  0
    1.2990    0.7500    0.0000 C   0  0
    0.0000    1.5000    0.0000 C   0  0
   -1.2990    0.7500    0.0000 C   0  0
   -1.2990   -0.7500    0.0000 C   0  0
   -2.7248   -1.2135    0.0000 C   0  0
   -2.8161   -2.7592    0.0000 C   0  0
   -1.6025   -3.6408    0.0000 C   0  0
   -1.7563   -5.1338    0.0000 C   0  0
   -0.5408   -6.0142    0.0000 C   0  0
   -0.6946   -7.5071    0.0000 C   0  0
   -2.0638   -8.1196    0.0000 O   0  0
    0.5209   -8.3875    0.0000 N   0  0
    0.3671   -9.8804    0.0000 C   0  0
    1.5826  -10.7608    0.0000 C   0  0
    1.4288  -12.2537    0.0000 C   0  0
    2.6443  -13.1341    0.0000 C   0  0
    2.4906  -14.6271    0.0000 N   0  0
    3.7060  -15.5075    0.0000 C   0  0
    5.0743  -14.8926    0.0000 C   0  0
    6.2909  -15.7701    0.0000 C   0  0
    6.1393  -17.2624    0.0000 C   0  0
    4.7711  -17.8773    0.0000 C   0  0
    3.5545  -16.9998    0.0000 C   0  0
    2.3446  -17.8850    0.0000 C   0  0
    0.9164  -17.4264    0.0000 O   0  0
    2.8131  -19.3100    0.0000 N   0  0
    1.9352  -20.5272    0.0000 C   0  0  3  0  0  0
    2.6563  -21.8445    0.0000 C   0  0
    1.8728  -23.1236    0.0000 C   0  0
    0.3733  -23.0848    0.0000 C   0  0
   -0.4101  -24.3639    0.0000 O   0  0
   -0.3427  -21.7667    0.0000 N   0  0
    0.4407  -20.4876    0.0000 C   0  0
   -0.2750  -19.1693    0.0000 O   0  0
    4.3131  -19.3048    0.0000 C   0  0
    5.1991  -20.5151    0.0000 O   0  0
   -0.2322   -3.0307    0.0000 C   0  0
    0.0000   -1.5000    0.0000 C   0  0
   -3.6065    0.0000    0.0000 C   0  0
   -5.1065    0.0000    0.0000 O   0  0
   -2.7248    1.2135    0.0000 N   0  0
   -3.1882    2.6401    0.0000 C   0  0
  1  2  1  0
  2  3  1  0
  3  4  2  0
  4  5  1  0
  5  6  2  0
  6  7  1  0
  7  8  2  0
  8  3  1  0
  8  9  1  0
  9 10  2  0
  9 11  2  0
  9 12  1  0
 12 13  1  0
 13 14  2  0
 14 15  1  0
 15 16  2  0
 16 17  1  0
 17 18  2  0
 18 19  1  0
 19 20  2  0
 20 21  1  0
 21 22  1  0
 22 23  1  0
 23 24  2  0
 23 25  1  0
 25 26  1  0
 26 27  1  0
 27 28  1  0
 28 29  1  0
 29 30  1  0
 30 31  1  0
 31 32  2  0
 32 33  1  0
 33 34  2  0
 34 35  1  0
 35 36  2  0
 36 31  1  0
 36 37  1  0
 37 38  2  0
 37 39  1  0
 40 39  1  4
 40 41  1  0
 41 42  1  0
 42 43  1  0
 43 44  2  0
 43 45  1  0
 45 46  1  0
 46 40  1  0
 46 47  2  0
 39 48  1  0
 48 35  1  0
 48 49  2  0
 20 50  1  0
 50 51  2  0
 51 13  1  0
 51 17  1  0
 18 52  1  0
 52 53  2  0
 52 54  1  0
 54 16  1  0
 54 55  1  0
M  END
> <assay_chembl_id>
CHEMBL4610548

> <assay_description>
Antiproliferative activity against human 22Rv1 cells assessed as reduction in cell viability

> <document_journal>
Bioorg Med Chem

> <molecule_chembl_id>
CHEMBL4633483

> <standard_value>
81

> <IC50_uM>
0.081

> <Activity>
Yes

> <Canonical_Smiles>
COc1ccccc1S(=O)(=O)Nc1ccc2c3c(cc(CCC(=O)NCCCCNc4cccc5c4C(=O)N(C4CCC(=O)NC4=O)C5=O)cc13)C(=O)N2C

$$$$

  SciTegic03142313312D

 37 39  0  0  1  0            999 V2000
   -3.0262   -2.5550    0.0000 C   0  0
   -1.5262   -2.5566    0.0000 O   0  0
   -0.7526   -1.2945    0.0000 C   0  0  2  0  0  0
    0.7470   -1.2598    0.0000 C   0  0
   -2.2578   -1.2945    0.0000 C   0  0
   -3.0105    0.0000    0.0000 C   0  0  2  0  0  0
   -4.3050    0.7526    0.0000 C   0  0
   -4.3050   -0.7526    0.0000 O   0  0
   -2.2578    1.2945    0.0000 C   0  0  2  0  0  0
   -3.0059    2.5947    0.0000 O   0  0
   -0.7526    1.2945    0.0000 C   0  0  1  0  0  0
   -0.0050    2.5959    0.0000 C   0  0
   -0.7573    3.8945    0.0000 C   0  0
   -0.0097    5.1959    0.0000 C   0  0
    1.4903    5.1986    0.0000 C   0  0
   -0.7620    6.4945    0.0000 C   0  0
   -0.0144    7.7958    0.0000 C   0  0
   -0.7667    9.0945    0.0000 C   0  0  2  0  0  0
   -2.2668    9.0893    0.0000 O   0  0
   -3.0214   10.3857    0.0000 C   0  0  2  0  0  0
   -4.5213   10.3804    0.0000 C   0  0
   -2.2759   11.6873    0.0000 C   0  0  2  0  0  0
   -3.0336   12.9829    0.0000 N   0  0
   -4.5344   12.9755    0.0000 C   0  0
   -5.2775   11.6725    0.0000 O   0  0
   -5.2920   14.2710    0.0000 C   0  0
   -6.7929   14.2636    0.0000 C   0  0
   -7.5377   12.9606    0.0000 C   0  0  2  0  0  0
   -6.7817   11.6651    0.0000 C   0  0
   -9.0385   12.9532    0.0000 O   0  0
   -9.7833   11.6502    0.0000 C   0  0
   -9.0273   10.3547    0.0000 C   0  0
  -11.2832   11.6428    0.0000 O   0  0
   -0.7759   11.6926    0.0000 C   0  0
   -0.0214   10.3962    0.0000 C   0  0  2  0  0  0
    1.4786   10.4015    0.0000 C   0  0
    0.0000    0.0000    0.0000 O   0  0
  1  2  1  0
  2  3  1  0
  3  4  1  1
  3  5  1  0
  6  5  1  1
  6  7  1  0
  7  8  1  0
  8  6  1  0
  6  9  1  0
  9 10  1  6
  9 11  1  0
 11 12  1  1
 12 13  2  0
 13 14  1  0
 14 15  1  0
 14 16  2  0
 16 17  1  0
 18 17  1  6
 18 19  1  0
 19 20  1  0
 20 21  1  6
 20 22  1  0
 22 23  1  6
 23 24  1  0
 24 25  2  0
 24 26  1  0
 26 27  2  0
 27 28  1  0
 28 29  1  6
 28 30  1  0
 30 31  1  0
 31 32  1  0
 31 33  2  0
 22 34  1  0
 34 35  1  0
 35 18  1  0
 35 36  1  6
 11 37  1  0
 37  3  1  0
M  END
> <assay_chembl_id>
CHEMBL4619227

> <assay_description>
Suppression of AR-V7 expression in human CWR22Rv1 cells expressing GFP measured after 3 days by FACS assay

> <document_journal>
ACS Med Chem Lett

> <molecule_chembl_id>
CHEMBL1221942

> <standard_value>
0.6

> <IC50_uM>
0.0006

> <Activity>
Yes

> <Canonical_Smiles>
CO[C@]1(C)C[C@@]2(CO2)[C@H](O)[C@@H](/C=C/C(C)=C/C[C@@H]2O[C@H](C)[C@H](NC(=O)/C=C\[C@H](C)OC(C)=O)C[C@@H]2C)O1

$$$$

  SciTegic03142313312D

 34 36  0  0  1  0            999 V2000
   18.0012    2.5254    0.0000 C   0  0
   17.2446    1.2303    0.0000 C   0  0
   17.9883   -0.0724    0.0000 O   0  0
   15.7438    1.2384    0.0000 O   0  0
   14.9996    2.5418    0.0000 C   0  0  1  0  0  0
   15.7563    3.8370    0.0000 C   0  0
   13.4988    2.5500    0.0000 C   0  0
   12.7547    3.8533    0.0000 C   0  0
   13.5105    5.1499    0.0000 C   0  0
   15.0105    5.1432    0.0000 O   0  0
   12.7664    6.4533    0.0000 N   0  0
   13.5222    7.7499    0.0000 C   0  0  2  0  0  0
   15.0222    7.7405    0.0000 C   0  0
   15.7803    9.0349    0.0000 C   0  0  2  0  0  0
   17.2802    9.0255    0.0000 C   0  0
   15.0384   10.3386    0.0000 C   0  0  2  0  0  0
   15.7995   11.6321    0.0000 C   0  0
   17.3003   11.6207    0.0000 C   0  0
   18.0614   12.9142    0.0000 C   0  0
   17.3218   14.2192    0.0000 C   0  0
   19.5622   12.9027    0.0000 C   0  0
   20.3234   14.1962    0.0000 C   0  0
   21.8242   14.1847    0.0000 C   0  0  1  0  0  0
   22.5564   12.8786    0.0000 O   0  0
   24.0538   12.8687    0.0000 C   0  0
   24.8189   14.1650    0.0000 C   0  0
   24.0867   15.4711    0.0000 C   0  0  2  0  0  0
   24.0965   16.9685    0.0000 C   0  0
   25.3928   16.2033    0.0000 O   0  0
   22.5893   15.4810    0.0000 C   0  0  2  0  0  0
   21.8499   16.7861    0.0000 O   0  0
   13.5384   10.3479    0.0000 O   0  0
   12.7803    9.0536    0.0000 C   0  0  2  0  0  0
   11.2803    9.0629    0.0000 C   0  0
  1  2  1  0
  2  3  2  0
  2  4  1  0
  4  5  1  0
  5  6  1  6
  5  7  1  0
  7  8  2  0
  8  9  1  0
  9 10  2  0
  9 11  1  0
 12 11  1  1
 12 13  1  0
 13 14  1  0
 14 15  1  1
 14 16  1  0
 16 17  1  1
 17 18  1  0
 18 19  2  0
 19 20  1  0
 19 21  1  0
 21 22  2  0
 23 22  1  6
 23 24  1  0
 24 25  1  0
 25 26  1  0
 27 26  1  6
 27 28  1  0
 28 29  1  0
 29 27  1  0
 27 30  1  0
 30 23  1  0
 30 31  1  1
 16 32  1  0
 32 33  1  0
 33 12  1  0
 33 34  1  1
M  END
> <assay_chembl_id>
CHEMBL4619227

> <assay_description>
Suppression of AR-V7 expression in human CWR22Rv1 cells expressing GFP measured after 3 days by FACS assay

> <document_journal>
ACS Med Chem Lett

> <molecule_chembl_id>
CHEMBL4647666

> <standard_value>
3.3

> <IC50_uM>
0.0033

> <Activity>
Yes

> <Canonical_Smiles>
CC(=O)O[C@@H](C)/C=C\C(=O)N[C@@H]1C[C@H](C)[C@H](C/C=C(C)/C=C/[C@H]2OCC[C@@]3(CO3)[C@@H]2O)O[C@@H]1C

$$$$

  SciTegic03142313312D

 35 37  0  0  1  0            999 V2000
   18.0012    2.5254    0.0000 C   0  0
   17.2446    1.2303    0.0000 C   0  0
   17.9883   -0.0724    0.0000 O   0  0
   15.7438    1.2384    0.0000 O   0  0
   14.9996    2.5418    0.0000 C   0  0  1  0  0  0
   15.7563    3.8370    0.0000 C   0  0
   13.4988    2.5500    0.0000 C   0  0
   12.7547    3.8533    0.0000 C   0  0
   13.5105    5.1499    0.0000 C   0  0
   15.0105    5.1432    0.0000 O   0  0
   12.7664    6.4533    0.0000 N   0  0
   13.5222    7.7499    0.0000 C   0  0  2  0  0  0
   15.0222    7.7405    0.0000 C   0  0
   15.7803    9.0349    0.0000 C   0  0  2  0  0  0
   17.2802    9.0255    0.0000 C   0  0
   15.0384   10.3386    0.0000 C   0  0  2  0  0  0
   15.7995   11.6321    0.0000 C   0  0
   17.3003   11.6207    0.0000 C   0  0
   18.0614   12.9142    0.0000 C   0  0
   17.3218   14.2192    0.0000 C   0  0
   19.5622   12.9027    0.0000 C   0  0
   20.3234   14.1962    0.0000 C   0  0
   21.8242   14.1847    0.0000 C   0  0  1  0  0  0
   22.5564   12.8786    0.0000 O   0  0
   24.0538   12.8687    0.0000 C   0  0
   24.8189   14.1650    0.0000 C   0  0
   24.0867   15.4711    0.0000 C   0  0  1  0  0  0
   24.0965   16.9685    0.0000 O   0  0
   25.3928   16.2033    0.0000 C   0  0  2  0  0  0
   26.8927   16.1866    0.0000 C   0  0
   22.5893   15.4810    0.0000 C   0  0  2  0  0  0
   21.8499   16.7861    0.0000 O   0  0
   13.5384   10.3479    0.0000 O   0  0
   12.7803    9.0536    0.0000 C   0  0  2  0  0  0
   11.2803    9.0629    0.0000 C   0  0
  1  2  1  0
  2  3  2  0
  2  4  1  0
  4  5  1  0
  5  6  1  6
  5  7  1  0
  7  8  2  0
  8  9  1  0
  9 10  2  0
  9 11  1  0
 12 11  1  1
 12 13  1  0
 13 14  1  0
 14 15  1  1
 14 16  1  0
 16 17  1  1
 17 18  1  0
 18 19  2  0
 19 20  1  0
 19 21  1  0
 21 22  2  0
 23 22  1  6
 23 24  1  0
 24 25  1  0
 25 26  1  0
 27 26  1  1
 27 28  1  0
 28 29  1  0
 29 27  1  0
 29 30  1  6
 27 31  1  0
 31 23  1  0
 31 32  1  1
 16 33  1  0
 33 34  1  0
 34 12  1  0
 34 35  1  1
M  END
> <assay_chembl_id>
CHEMBL4619227

> <assay_description>
Suppression of AR-V7 expression in human CWR22Rv1 cells expressing GFP measured after 3 days by FACS assay

> <document_journal>
ACS Med Chem Lett

> <molecule_chembl_id>
CHEMBL4646797

> <standard_value>
202

> <IC50_uM>
0.202

> <Activity>
Yes

> <Canonical_Smiles>
CC(=O)O[C@@H](C)/C=C\C(=O)N[C@@H]1C[C@H](C)[C@H](C/C=C(C)/C=C/[C@H]2OCC[C@]3(O[C@@H]3C)[C@@H]2O)O[C@@H]1C

$$$$

  SciTegic03142313312D

 35 37  0  0  1  0            999 V2000
   18.0012    2.5254    0.0000 C   0  0
   17.2446    1.2303    0.0000 C   0  0
   17.9883   -0.0724    0.0000 O   0  0
   15.7438    1.2384    0.0000 O   0  0
   14.9996    2.5418    0.0000 C   0  0  1  0  0  0
   15.7563    3.8370    0.0000 C   0  0
   13.4988    2.5500    0.0000 C   0  0
   12.7547    3.8533    0.0000 C   0  0
   13.5105    5.1499    0.0000 C   0  0
   15.0105    5.1432    0.0000 O   0  0
   12.7664    6.4533    0.0000 N   0  0
   13.5222    7.7499    0.0000 C   0  0  2  0  0  0
   15.0222    7.7405    0.0000 C   0  0
   15.7803    9.0349    0.0000 C   0  0  2  0  0  0
   17.2802    9.0255    0.0000 C   0  0
   15.0384   10.3386    0.0000 C   0  0  2  0  0  0
   15.7995   11.6321    0.0000 C   0  0
   17.3003   11.6207    0.0000 C   0  0
   18.0614   12.9142    0.0000 C   0  0
   17.3218   14.2192    0.0000 C   0  0
   19.5622   12.9027    0.0000 C   0  0
   20.3234   14.1962    0.0000 C   0  0
   21.8242   14.1847    0.0000 C   0  0  1  0  0  0
   22.5564   12.8786    0.0000 O   0  0
   24.0538   12.8687    0.0000 C   0  0
   24.8189   14.1650    0.0000 C   0  0
   24.0867   15.4711    0.0000 C   0  0  1  0  0  0
   24.0965   16.9685    0.0000 O   0  0
   25.3928   16.2033    0.0000 C   0  0  1  0  0  0
   26.8927   16.1866    0.0000 C   0  0
   22.5893   15.4810    0.0000 C   0  0  2  0  0  0
   21.8499   16.7861    0.0000 O   0  0
   13.5384   10.3479    0.0000 O   0  0
   12.7803    9.0536    0.0000 C   0  0  2  0  0  0
   11.2803    9.0629    0.0000 C   0  0
  1  2  1  0
  2  3  2  0
  2  4  1  0
  4  5  1  0
  5  6  1  6
  5  7  1  0
  7  8  2  0
  8  9  1  0
  9 10  2  0
  9 11  1  0
 12 11  1  1
 12 13  1  0
 13 14  1  0
 14 15  1  1
 14 16  1  0
 16 17  1  1
 17 18  1  0
 18 19  2  0
 19 20  1  0
 19 21  1  0
 21 22  2  0
 23 22  1  6
 23 24  1  0
 24 25  1  0
 25 26  1  0
 27 26  1  1
 27 28  1  0
 28 29  1  0
 29 27  1  0
 29 30  1  1
 27 31  1  0
 31 23  1  0
 31 32  1  1
 16 33  1  0
 33 34  1  0
 34 12  1  0
 34 35  1  1
M  END
> <assay_chembl_id>
CHEMBL4619227

> <assay_description>
Suppression of AR-V7 expression in human CWR22Rv1 cells expressing GFP measured after 3 days by FACS assay

> <document_journal>
ACS Med Chem Lett

> <molecule_chembl_id>
CHEMBL4635550

> <standard_value>
187

> <IC50_uM>
0.187

> <Activity>
Yes

> <Canonical_Smiles>
CC(=O)O[C@@H](C)/C=C\C(=O)N[C@@H]1C[C@H](C)[C@H](C/C=C(C)/C=C/[C@H]2OCC[C@]3(O[C@H]3C)[C@@H]2O)O[C@@H]1C

$$$$

  SciTegic03142313312D

 33 37  0  0  0  0            999 V2000
    5.5635   -8.3787    0.0000 C   0  0
    5.5261   -6.8792    0.0000 C   0  0
    4.2107   -6.1619    0.0000 N   0  0
    4.0146   -4.6747    0.0000 C   0  0
    5.0960   -3.6352    0.0000 O   0  0
    2.5536   -4.4230    0.0000 C   0  0
    1.8032   -3.1233    0.0000 C   0  0
    2.4133   -1.7530    0.0000 S   0  0
    1.2990   -0.7500    0.0000 C   0  0
    1.2990    0.7500    0.0000 C   0  0
    0.0000    1.5000    0.0000 C   0  0
   -1.2990    0.7500    0.0000 C   0  0
   -1.2990   -0.7500    0.0000 C   0  0
    0.0000   -1.5000    0.0000 C   0  0
    0.3114   -2.9665    0.0000 N   0  0
   -0.6923   -4.0811    0.0000 C   0  0
    1.8242   -5.7201    0.0000 S   0  0
    2.8570   -6.8080    0.0000 C   0  0
    2.5812   -8.2806    0.0000 C   0  0
    1.1659   -8.7799    0.0000 C   0  0
    0.0283   -7.8020    0.0000 C   0  0
   -1.3872   -8.2982    0.0000 C   0  0
   -1.6654   -9.7722    0.0000 N   0  0
   -0.5279  -10.7500    0.0000 C   0  0
    0.8877  -10.2539    0.0000 C   0  0
    2.0237  -11.2347    0.0000 N   0  0
    1.7433  -12.7091    0.0000 C   0  0
    0.3259  -13.2003    0.0000 C   0  0
    0.0427  -14.6734    0.0000 C   0  0
    1.1767  -15.6552    0.0000 C   0  0
    2.5940  -15.1640    0.0000 C   0  0
    2.8773  -13.6910    0.0000 C   0  0
    4.2946  -13.1998    0.0000 C   0  0
  1  2  1  0
  2  3  1  0
  3  4  1  0
  4  5  2  0
  4  6  1  0
  6  7  2  0
  7  8  1  0
  8  9  1  0
  9 10  2  0
 10 11  1  0
 11 12  2  0
 12 13  1  0
 13 14  2  0
 14  9  1  0
 14 15  1  0
 15  7  1  0
 15 16  1  0
  6 17  1  0
 17 18  1  0
 18  3  1  0
 18 19  2  0
 19 20  1  0
 20 21  2  0
 21 22  1  0
 22 23  2  0
 23 24  1  0
 24 25  2  0
 25 20  1  0
 25 26  1  0
 26 27  1  0
 27 28  2  0
 28 29  1  0
 29 30  2  0
 30 31  1  0
 31 32  2  0
 32 27  1  0
 32 33  1  0
M  END
> <assay_chembl_id>
CHEMBL4619830

> <assay_description>
Antiproliferative activity against human 22Rv1 cells assessed as cell growth inhibition

> <document_journal>
Bioorg Med Chem Lett

> <molecule_chembl_id>
CHEMBL4634735

> <standard_value>
470

> <IC50_uM>
0.47

> <Activity>
Yes

> <Canonical_Smiles>
CCn1c(=O)/c(=C2\Sc3ccccc3N2C)s/c1=C\c1ccncc1Nc1ccccc1C

$$$$

  SciTegic03142313312D

 33 37  0  0  0  0            999 V2000
    5.5635   -8.3787    0.0000 C   0  0
    5.5261   -6.8792    0.0000 C   0  0
    4.2107   -6.1619    0.0000 N   0  0
    4.0146   -4.6747    0.0000 C   0  0
    5.0960   -3.6352    0.0000 O   0  0
    2.5536   -4.4230    0.0000 C   0  0
    1.8032   -3.1233    0.0000 C   0  0
    2.4133   -1.7530    0.0000 S   0  0
    1.2990   -0.7500    0.0000 C   0  0
    1.2990    0.7500    0.0000 C   0  0
    0.0000    1.5000    0.0000 C   0  0
   -1.2990    0.7500    0.0000 C   0  0
   -1.2990   -0.7500    0.0000 C   0  0
    0.0000   -1.5000    0.0000 C   0  0
    0.3114   -2.9665    0.0000 N   0  0
   -0.6923   -4.0811    0.0000 C   0  0
    1.8242   -5.7201    0.0000 S   0  0
    2.8570   -6.8080    0.0000 C   0  0
    2.5812   -8.2806    0.0000 C   0  0
    1.1659   -8.7799    0.0000 C   0  0
    0.0283   -7.8020    0.0000 C   0  0
   -1.3872   -8.2982    0.0000 C   0  0
   -1.6654   -9.7722    0.0000 N   0  0
   -0.5279  -10.7500    0.0000 C   0  0
    0.8877  -10.2539    0.0000 C   0  0
    2.0237  -11.2347    0.0000 N   0  0
    1.7433  -12.7091    0.0000 C   0  0
    0.3259  -13.2003    0.0000 C   0  0
    0.0427  -14.6734    0.0000 C   0  0
    1.1767  -15.6552    0.0000 C   0  0
    2.5940  -15.1640    0.0000 C   0  0
    2.8773  -13.6910    0.0000 C   0  0
    4.2946  -13.1998    0.0000 Cl  0  0
  1  2  1  0
  2  3  1  0
  3  4  1  0
  4  5  2  0
  4  6  1  0
  6  7  2  0
  7  8  1  0
  8  9  1  0
  9 10  2  0
 10 11  1  0
 11 12  2  0
 12 13  1  0
 13 14  2  0
 14  9  1  0
 14 15  1  0
 15  7  1  0
 15 16  1  0
  6 17  1  0
 17 18  1  0
 18  3  1  0
 18 19  2  0
 19 20  1  0
 20 21  2  0
 21 22  1  0
 22 23  2  0
 23 24  1  0
 24 25  2  0
 25 20  1  0
 25 26  1  0
 26 27  1  0
 27 28  2  0
 28 29  1  0
 29 30  2  0
 30 31  1  0
 31 32  2  0
 32 27  1  0
 32 33  1  0
M  END
> <assay_chembl_id>
CHEMBL4619830

> <assay_description>
Antiproliferative activity against human 22Rv1 cells assessed as cell growth inhibition

> <document_journal>
Bioorg Med Chem Lett

> <molecule_chembl_id>
CHEMBL4647280

> <standard_value>
460

> <IC50_uM>
0.46

> <Activity>
Yes

> <Canonical_Smiles>
CCn1c(=O)/c(=C2\Sc3ccccc3N2C)s/c1=C\c1ccncc1Nc1ccccc1Cl

$$$$

  SciTegic03142313312D

 33 37  0  0  0  0            999 V2000
    5.5635   -8.3787    0.0000 C   0  0
    5.5261   -6.8792    0.0000 C   0  0
    4.2107   -6.1619    0.0000 N   0  0
    4.0146   -4.6747    0.0000 C   0  0
    5.0960   -3.6352    0.0000 O   0  0
    2.5536   -4.4230    0.0000 C   0  0
    1.8032   -3.1233    0.0000 C   0  0
    2.4133   -1.7530    0.0000 S   0  0
    1.2990   -0.7500    0.0000 C   0  0
    1.2990    0.7500    0.0000 C   0  0
    0.0000    1.5000    0.0000 C   0  0
   -1.2990    0.7500    0.0000 C   0  0
   -1.2990   -0.7500    0.0000 C   0  0
    0.0000   -1.5000    0.0000 C   0  0
    0.3114   -2.9665    0.0000 N   0  0
   -0.6923   -4.0811    0.0000 C   0  0
    1.8242   -5.7201    0.0000 S   0  0
    2.8570   -6.8080    0.0000 C   0  0
    2.5812   -8.2806    0.0000 C   0  0
    1.1659   -8.7799    0.0000 C   0  0
    0.0283   -7.8020    0.0000 C   0  0
   -1.3872   -8.2982    0.0000 C   0  0
   -1.6654   -9.7722    0.0000 N   0  0
   -0.5279  -10.7500    0.0000 C   0  0
    0.8877  -10.2539    0.0000 C   0  0
    2.0237  -11.2347    0.0000 N   0  0
    1.7433  -12.7091    0.0000 C   0  0
    0.3259  -13.2003    0.0000 C   0  0
    0.0427  -14.6734    0.0000 C   0  0
    1.1767  -15.6552    0.0000 C   0  0
    2.5940  -15.1640    0.0000 C   0  0
    2.8773  -13.6910    0.0000 C   0  0
    4.2946  -13.1998    0.0000 F   0  0
  1  2  1  0
  2  3  1  0
  3  4  1  0
  4  5  2  0
  4  6  1  0
  6  7  2  0
  7  8  1  0
  8  9  1  0
  9 10  2  0
 10 11  1  0
 11 12  2  0
 12 13  1  0
 13 14  2  0
 14  9  1  0
 14 15  1  0
 15  7  1  0
 15 16  1  0
  6 17  1  0
 17 18  1  0
 18  3  1  0
 18 19  2  0
 19 20  1  0
 20 21  2  0
 21 22  1  0
 22 23  2  0
 23 24  1  0
 24 25  2  0
 25 20  1  0
 25 26  1  0
 26 27  1  0
 27 28  2  0
 28 29  1  0
 29 30  2  0
 30 31  1  0
 31 32  2  0
 32 27  1  0
 32 33  1  0
M  END
> <assay_chembl_id>
CHEMBL4619830

> <assay_description>
Antiproliferative activity against human 22Rv1 cells assessed as cell growth inhibition

> <document_journal>
Bioorg Med Chem Lett

> <molecule_chembl_id>
CHEMBL4634734

> <standard_value>
300

> <IC50_uM>
0.3

> <Activity>
Yes

> <Canonical_Smiles>
CCn1c(=O)/c(=C2\Sc3ccccc3N2C)s/c1=C\c1ccncc1Nc1ccccc1F

$$$$

  SciTegic03142313312D

 34 38  0  0  0  0            999 V2000
    5.5635   -8.3787    0.0000 C   0  0
    5.5261   -6.8792    0.0000 C   0  0
    4.2107   -6.1619    0.0000 N   0  0
    4.0146   -4.6747    0.0000 C   0  0
    5.0960   -3.6352    0.0000 O   0  0
    2.5536   -4.4230    0.0000 C   0  0
    1.8032   -3.1233    0.0000 C   0  0
    2.4133   -1.7530    0.0000 S   0  0
    1.2990   -0.7500    0.0000 C   0  0
    1.2990    0.7500    0.0000 C   0  0
    0.0000    1.5000    0.0000 C   0  0
   -1.2990    0.7500    0.0000 C   0  0
   -2.5981    1.5000    0.0000 C   0  0
   -1.2990   -0.7500    0.0000 C   0  0
    0.0000   -1.5000    0.0000 C   0  0
    0.3114   -2.9665    0.0000 N   0  0
   -0.6923   -4.0811    0.0000 C   0  0
    1.8242   -5.7201    0.0000 S   0  0
    2.8570   -6.8080    0.0000 C   0  0
    2.5812   -8.2806    0.0000 C   0  0
    1.1659   -8.7799    0.0000 C   0  0
    0.0283   -7.8020    0.0000 C   0  0
   -1.3872   -8.2982    0.0000 C   0  0
   -1.6654   -9.7722    0.0000 N   0  0
   -0.5279  -10.7500    0.0000 C   0  0
    0.8877  -10.2539    0.0000 C   0  0
    2.0237  -11.2347    0.0000 N   0  0
    1.7433  -12.7091    0.0000 C   0  0
    0.3259  -13.2003    0.0000 C   0  0
    0.0427  -14.6734    0.0000 C   0  0
    1.1767  -15.6552    0.0000 C   0  0
    2.5940  -15.1640    0.0000 C   0  0
    2.8773  -13.6910    0.0000 C   0  0
    4.2946  -13.1998    0.0000 C   0  0
  1  2  1  0
  2  3  1  0
  3  4  1  0
  4  5  2  0
  4  6  1  0
  6  7  2  0
  7  8  1  0
  8  9  1  0
  9 10  2  0
 10 11  1  0
 11 12  2  0
 12 13  1  0
 12 14  1  0
 14 15  2  0
 15  9  1  0
 15 16  1  0
 16  7  1  0
 16 17  1  0
  6 18  1  0
 18 19  1  0
 19  3  1  0
 19 20  2  0
 20 21  1  0
 21 22  2  0
 22 23  1  0
 23 24  2  0
 24 25  1  0
 25 26  2  0
 26 21  1  0
 26 27  1  0
 27 28  1  0
 28 29  2  0
 29 30  1  0
 30 31  2  0
 31 32  1  0
 32 33  2  0
 33 28  1  0
 33 34  1  0
M  END
> <assay_chembl_id>
CHEMBL4619830

> <assay_description>
Antiproliferative activity against human 22Rv1 cells assessed as cell growth inhibition

> <document_journal>
Bioorg Med Chem Lett

> <molecule_chembl_id>
CHEMBL4645949

> <standard_value>
480

> <IC50_uM>
0.48

> <Activity>
Yes

> <Canonical_Smiles>
CCn1c(=O)/c(=C2\Sc3ccc(C)cc3N2C)s/c1=C\c1ccncc1Nc1ccccc1C

$$$$

  SciTegic03142313312D

 34 38  0  0  0  0            999 V2000
    5.5635   -8.3787    0.0000 C   0  0
    5.5261   -6.8792    0.0000 C   0  0
    4.2107   -6.1619    0.0000 N   0  0
    4.0146   -4.6747    0.0000 C   0  0
    5.0960   -3.6352    0.0000 O   0  0
    2.5536   -4.4230    0.0000 C   0  0
    1.8032   -3.1233    0.0000 C   0  0
    2.4133   -1.7530    0.0000 S   0  0
    1.2990   -0.7500    0.0000 C   0  0
    1.2990    0.7500    0.0000 C   0  0
    0.0000    1.5000    0.0000 C   0  0
   -1.2990    0.7500    0.0000 C   0  0
   -2.5981    1.5000    0.0000 C   0  0
   -1.2990   -0.7500    0.0000 C   0  0
    0.0000   -1.5000    0.0000 C   0  0
    0.3114   -2.9665    0.0000 N   0  0
   -0.6923   -4.0811    0.0000 C   0  0
    1.8242   -5.7201    0.0000 S   0  0
    2.8570   -6.8080    0.0000 C   0  0
    2.5812   -8.2806    0.0000 C   0  0
    1.1659   -8.7799    0.0000 C   0  0
    0.0283   -7.8020    0.0000 C   0  0
   -1.3872   -8.2982    0.0000 C   0  0
   -1.6654   -9.7722    0.0000 N   0  0
   -0.5279  -10.7500    0.0000 C   0  0
    0.8877  -10.2539    0.0000 C   0  0
    2.0237  -11.2347    0.0000 N   0  0
    1.7433  -12.7091    0.0000 C   0  0
    0.3259  -13.2003    0.0000 C   0  0
    0.0427  -14.6734    0.0000 C   0  0
    1.1767  -15.6552    0.0000 C   0  0
    2.5940  -15.1640    0.0000 C   0  0
    2.8773  -13.6910    0.0000 C   0  0
    4.2946  -13.1998    0.0000 Cl  0  0
  1  2  1  0
  2  3  1  0
  3  4  1  0
  4  5  2  0
  4  6  1  0
  6  7  2  0
  7  8  1  0
  8  9  1  0
  9 10  2  0
 10 11  1  0
 11 12  2  0
 12 13  1  0
 12 14  1  0
 14 15  2  0
 15  9  1  0
 15 16  1  0
 16  7  1  0
 16 17  1  0
  6 18  1  0
 18 19  1  0
 19  3  1  0
 19 20  2  0
 20 21  1  0
 21 22  2  0
 22 23  1  0
 23 24  2  0
 24 25  1  0
 25 26  2  0
 26 21  1  0
 26 27  1  0
 27 28  1  0
 28 29  2  0
 29 30  1  0
 30 31  2  0
 31 32  1  0
 32 33  2  0
 33 28  1  0
 33 34  1  0
M  END
> <assay_chembl_id>
CHEMBL4619830

> <assay_description>
Antiproliferative activity against human 22Rv1 cells assessed as cell growth inhibition

> <document_journal>
Bioorg Med Chem Lett

> <molecule_chembl_id>
CHEMBL4637513

> <standard_value>
350

> <IC50_uM>
0.35

> <Activity>
Yes

> <Canonical_Smiles>
CCn1c(=O)/c(=C2\Sc3ccc(C)cc3N2C)s/c1=C\c1ccncc1Nc1ccccc1Cl

$$$$

  SciTegic03142313312D

 34 38  0  0  0  0            999 V2000
    5.5635   -8.3787    0.0000 C   0  0
    5.5261   -6.8792    0.0000 C   0  0
    4.2107   -6.1619    0.0000 N   0  0
    4.0146   -4.6747    0.0000 C   0  0
    5.0960   -3.6352    0.0000 O   0  0
    2.5536   -4.4230    0.0000 C   0  0
    1.8032   -3.1233    0.0000 C   0  0
    2.4133   -1.7530    0.0000 S   0  0
    1.2990   -0.7500    0.0000 C   0  0
    1.2990    0.7500    0.0000 C   0  0
    0.0000    1.5000    0.0000 C   0  0
   -1.2990    0.7500    0.0000 C   0  0
   -2.5981    1.5000    0.0000 C   0  0
   -1.2990   -0.7500    0.0000 C   0  0
    0.0000   -1.5000    0.0000 C   0  0
    0.3114   -2.9665    0.0000 N   0  0
   -0.6923   -4.0811    0.0000 C   0  0
    1.8242   -5.7201    0.0000 S   0  0
    2.8570   -6.8080    0.0000 C   0  0
    2.5812   -8.2806    0.0000 C   0  0
    1.1659   -8.7799    0.0000 C   0  0
    0.0283   -7.8020    0.0000 C   0  0
   -1.3872   -8.2982    0.0000 C   0  0
   -1.6654   -9.7722    0.0000 N   0  0
   -0.5279  -10.7500    0.0000 C   0  0
    0.8877  -10.2539    0.0000 C   0  0
    2.0237  -11.2347    0.0000 N   0  0
    1.7433  -12.7091    0.0000 C   0  0
    0.3259  -13.2003    0.0000 C   0  0
    0.0427  -14.6734    0.0000 C   0  0
    1.1767  -15.6552    0.0000 C   0  0
    2.5940  -15.1640    0.0000 C   0  0
    2.8773  -13.6910    0.0000 C   0  0
    4.2946  -13.1998    0.0000 F   0  0
  1  2  1  0
  2  3  1  0
  3  4  1  0
  4  5  2  0
  4  6  1  0
  6  7  2  0
  7  8  1  0
  8  9  1  0
  9 10  2  0
 10 11  1  0
 11 12  2  0
 12 13  1  0
 12 14  1  0
 14 15  2  0
 15  9  1  0
 15 16  1  0
 16  7  1  0
 16 17  1  0
  6 18  1  0
 18 19  1  0
 19  3  1  0
 19 20  2  0
 20 21  1  0
 21 22  2  0
 22 23  1  0
 23 24  2  0
 24 25  1  0
 25 26  2  0
 26 21  1  0
 26 27  1  0
 27 28  1  0
 28 29  2  0
 29 30  1  0
 30 31  2  0
 31 32  1  0
 32 33  2  0
 33 28  1  0
 33 34  1  0
M  END
> <assay_chembl_id>
CHEMBL4619830

> <assay_description>
Antiproliferative activity against human 22Rv1 cells assessed as cell growth inhibition

> <document_journal>
Bioorg Med Chem Lett

> <molecule_chembl_id>
CHEMBL4637547

> <standard_value>
150

> <IC50_uM>
0.15

> <Activity>
Yes

> <Canonical_Smiles>
CCn1c(=O)/c(=C2\Sc3ccc(C)cc3N2C)s/c1=C\c1ccncc1Nc1ccccc1F

$$$$

  SciTegic03142313312D

 35 39  0  0  0  0            999 V2000
    5.5635   -8.3787    0.0000 C   0  0
    5.5261   -6.8792    0.0000 C   0  0
    4.2107   -6.1619    0.0000 N   0  0
    4.0146   -4.6747    0.0000 C   0  0
    5.0960   -3.6352    0.0000 O   0  0
    2.5536   -4.4230    0.0000 C   0  0
    1.8032   -3.1233    0.0000 C   0  0
    2.4133   -1.7530    0.0000 S   0  0
    1.2990   -0.7500    0.0000 C   0  0
    1.2990    0.7500    0.0000 C   0  0
    0.0000    1.5000    0.0000 C   0  0
   -1.2990    0.7500    0.0000 C   0  0
   -2.6003    1.4977    0.0000 O   0  0
   -3.8983    0.7459    0.0000 C   0  0
   -1.2990   -0.7500    0.0000 C   0  0
    0.0000   -1.5000    0.0000 C   0  0
    0.3114   -2.9665    0.0000 N   0  0
   -0.6923   -4.0811    0.0000 C   0  0
    1.8242   -5.7201    0.0000 S   0  0
    2.8570   -6.8080    0.0000 C   0  0
    2.5812   -8.2806    0.0000 C   0  0
    1.1659   -8.7799    0.0000 C   0  0
    0.0283   -7.8020    0.0000 C   0  0
   -1.3872   -8.2982    0.0000 C   0  0
   -1.6654   -9.7722    0.0000 N   0  0
   -0.5279  -10.7500    0.0000 C   0  0
    0.8877  -10.2539    0.0000 C   0  0
    2.0237  -11.2347    0.0000 N   0  0
    1.7433  -12.7091    0.0000 C   0  0
    0.3259  -13.2003    0.0000 C   0  0
    0.0427  -14.6734    0.0000 C   0  0
    1.1767  -15.6552    0.0000 C   0  0
    2.5940  -15.1640    0.0000 C   0  0
    2.8773  -13.6910    0.0000 C   0  0
    4.2946  -13.1998    0.0000 C   0  0
  1  2  1  0
  2  3  1  0
  3  4  1  0
  4  5  2  0
  4  6  1  0
  6  7  2  0
  7  8  1  0
  8  9  1  0
  9 10  2  0
 10 11  1  0
 11 12  2  0
 12 13  1  0
 13 14  1  0
 12 15  1  0
 15 16  2  0
 16  9  1  0
 16 17  1  0
 17  7  1  0
 17 18  1  0
  6 19  1  0
 19 20  1  0
 20  3  1  0
 20 21  2  0
 21 22  1  0
 22 23  2  0
 23 24  1  0
 24 25  2  0
 25 26  1  0
 26 27  2  0
 27 22  1  0
 27 28  1  0
 28 29  1  0
 29 30  2  0
 30 31  1  0
 31 32  2  0
 32 33  1  0
 33 34  2  0
 34 29  1  0
 34 35  1  0
M  END
> <assay_chembl_id>
CHEMBL4619830

> <assay_description>
Antiproliferative activity against human 22Rv1 cells assessed as cell growth inhibition

> <document_journal>
Bioorg Med Chem Lett

> <molecule_chembl_id>
CHEMBL4635971

> <standard_value>
410

> <IC50_uM>
0.41

> <Activity>
Yes

> <Canonical_Smiles>
CCn1c(=O)/c(=C2\Sc3ccc(OC)cc3N2C)s/c1=C\c1ccncc1Nc1ccccc1C

$$$$

  SciTegic03142313312D

 35 39  0  0  0  0            999 V2000
    5.5635   -8.3787    0.0000 C   0  0
    5.5261   -6.8792    0.0000 C   0  0
    4.2107   -6.1619    0.0000 N   0  0
    4.0146   -4.6747    0.0000 C   0  0
    5.0960   -3.6352    0.0000 O   0  0
    2.5536   -4.4230    0.0000 C   0  0
    1.8032   -3.1233    0.0000 C   0  0
    2.4133   -1.7530    0.0000 S   0  0
    1.2990   -0.7500    0.0000 C   0  0
    1.2990    0.7500    0.0000 C   0  0
    0.0000    1.5000    0.0000 C   0  0
   -1.2990    0.7500    0.0000 C   0  0
   -2.6003    1.4977    0.0000 O   0  0
   -3.8983    0.7459    0.0000 C   0  0
   -1.2990   -0.7500    0.0000 C   0  0
    0.0000   -1.5000    0.0000 C   0  0
    0.3114   -2.9665    0.0000 N   0  0
   -0.6923   -4.0811    0.0000 C   0  0
    1.8242   -5.7201    0.0000 S   0  0
    2.8570   -6.8080    0.0000 C   0  0
    2.5812   -8.2806    0.0000 C   0  0
    1.1659   -8.7799    0.0000 C   0  0
    0.0283   -7.8020    0.0000 C   0  0
   -1.3872   -8.2982    0.0000 C   0  0
   -1.6654   -9.7722    0.0000 N   0  0
   -0.5279  -10.7500    0.0000 C   0  0
    0.8877  -10.2539    0.0000 C   0  0
    2.0237  -11.2347    0.0000 N   0  0
    1.7433  -12.7091    0.0000 C   0  0
    0.3259  -13.2003    0.0000 C   0  0
    0.0427  -14.6734    0.0000 C   0  0
    1.1767  -15.6552    0.0000 C   0  0
    2.5940  -15.1640    0.0000 C   0  0
    2.8773  -13.6910    0.0000 C   0  0
    4.2946  -13.1998    0.0000 Cl  0  0
  1  2  1  0
  2  3  1  0
  3  4  1  0
  4  5  2  0
  4  6  1  0
  6  7  2  0
  7  8  1  0
  8  9  1  0
  9 10  2  0
 10 11  1  0
 11 12  2  0
 12 13  1  0
 13 14  1  0
 12 15  1  0
 15 16  2  0
 16  9  1  0
 16 17  1  0
 17  7  1  0
 17 18  1  0
  6 19  1  0
 19 20  1  0
 20  3  1  0
 20 21  2  0
 21 22  1  0
 22 23  2  0
 23 24  1  0
 24 25  2  0
 25 26  1  0
 26 27  2  0
 27 22  1  0
 27 28  1  0
 28 29  1  0
 29 30  2  0
 30 31  1  0
 31 32  2  0
 32 33  1  0
 33 34  2  0
 34 29  1  0
 34 35  1  0
M  END
> <assay_chembl_id>
CHEMBL4619830

> <assay_description>
Antiproliferative activity against human 22Rv1 cells assessed as cell growth inhibition

> <document_journal>
Bioorg Med Chem Lett

> <molecule_chembl_id>
CHEMBL4640077

> <standard_value>
500

> <IC50_uM>
0.5

> <Activity>
Yes

> <Canonical_Smiles>
CCn1c(=O)/c(=C2\Sc3ccc(OC)cc3N2C)s/c1=C\c1ccncc1Nc1ccccc1Cl

$$$$

  SciTegic03142313312D

 35 39  0  0  0  0            999 V2000
    5.5635   -8.3787    0.0000 C   0  0
    5.5261   -6.8792    0.0000 C   0  0
    4.2107   -6.1619    0.0000 N   0  0
    4.0146   -4.6747    0.0000 C   0  0
    5.0960   -3.6352    0.0000 O   0  0
    2.5536   -4.4230    0.0000 C   0  0
    1.8032   -3.1233    0.0000 C   0  0
    2.4133   -1.7530    0.0000 S   0  0
    1.2990   -0.7500    0.0000 C   0  0
    1.2990    0.7500    0.0000 C   0  0
    0.0000    1.5000    0.0000 C   0  0
   -1.2990    0.7500    0.0000 C   0  0
   -2.6003    1.4977    0.0000 O   0  0
   -3.8983    0.7459    0.0000 C   0  0
   -1.2990   -0.7500    0.0000 C   0  0
    0.0000   -1.5000    0.0000 C   0  0
    0.3114   -2.9665    0.0000 N   0  0
   -0.6923   -4.0811    0.0000 C   0  0
    1.8242   -5.7201    0.0000 S   0  0
    2.8570   -6.8080    0.0000 C   0  0
    2.5812   -8.2806    0.0000 C   0  0
    1.1659   -8.7799    0.0000 C   0  0
    0.0283   -7.8020    0.0000 C   0  0
   -1.3872   -8.2982    0.0000 C   0  0
   -1.6654   -9.7722    0.0000 N   0  0
   -0.5279  -10.7500    0.0000 C   0  0
    0.8877  -10.2539    0.0000 C   0  0
    2.0237  -11.2347    0.0000 N   0  0
    1.7433  -12.7091    0.0000 C   0  0
    0.3259  -13.2003    0.0000 C   0  0
    0.0427  -14.6734    0.0000 C   0  0
    1.1767  -15.6552    0.0000 C   0  0
    2.5940  -15.1640    0.0000 C   0  0
    2.8773  -13.6910    0.0000 C   0  0
    4.2946  -13.1998    0.0000 F   0  0
  1  2  1  0
  2  3  1  0
  3  4  1  0
  4  5  2  0
  4  6  1  0
  6  7  2  0
  7  8  1  0
  8  9  1  0
  9 10  2  0
 10 11  1  0
 11 12  2  0
 12 13  1  0
 13 14  1  0
 12 15  1  0
 15 16  2  0
 16  9  1  0
 16 17  1  0
 17  7  1  0
 17 18  1  0
  6 19  1  0
 19 20  1  0
 20  3  1  0
 20 21  2  0
 21 22  1  0
 22 23  2  0
 23 24  1  0
 24 25  2  0
 25 26  1  0
 26 27  2  0
 27 22  1  0
 27 28  1  0
 28 29  1  0
 29 30  2  0
 30 31  1  0
 31 32  2  0
 32 33  1  0
 33 34  2  0
 34 29  1  0
 34 35  1  0
M  END
> <assay_chembl_id>
CHEMBL4619830

> <assay_description>
Antiproliferative activity against human 22Rv1 cells assessed as cell growth inhibition

> <document_journal>
Bioorg Med Chem Lett

> <molecule_chembl_id>
CHEMBL4645671

> <standard_value>
190

> <IC50_uM>
0.19

> <Activity>
Yes

> <Canonical_Smiles>
CCn1c(=O)/c(=C2\Sc3ccc(OC)cc3N2C)s/c1=C\c1ccncc1Nc1ccccc1F

$$$$

  SciTegic03142313312D

 34 38  0  0  0  0            999 V2000
    5.5635   -8.3787    0.0000 C   0  0
    5.5261   -6.8792    0.0000 C   0  0
    4.2107   -6.1619    0.0000 N   0  0
    4.0146   -4.6747    0.0000 C   0  0
    5.0960   -3.6352    0.0000 O   0  0
    2.5536   -4.4230    0.0000 C   0  0
    1.8032   -3.1233    0.0000 C   0  0
    2.4133   -1.7530    0.0000 S   0  0
    1.2990   -0.7500    0.0000 C   0  0
    1.2990    0.7500    0.0000 C   0  0
    0.0000    1.5000    0.0000 C   0  0
    0.0000    3.0000    0.0000 F   0  0
   -1.2990    0.7500    0.0000 C   0  0
   -1.2990   -0.7500    0.0000 C   0  0
    0.0000   -1.5000    0.0000 C   0  0
    0.3114   -2.9665    0.0000 N   0  0
   -0.6923   -4.0811    0.0000 C   0  0
    1.8242   -5.7201    0.0000 S   0  0
    2.8570   -6.8080    0.0000 C   0  0
    2.5812   -8.2806    0.0000 C   0  0
    1.1659   -8.7799    0.0000 C   0  0
    0.0283   -7.8020    0.0000 C   0  0
   -1.3872   -8.2982    0.0000 C   0  0
   -1.6654   -9.7722    0.0000 N   0  0
   -0.5279  -10.7500    0.0000 C   0  0
    0.8877  -10.2539    0.0000 C   0  0
    2.0237  -11.2347    0.0000 N   0  0
    1.7433  -12.7091    0.0000 C   0  0
    0.3259  -13.2003    0.0000 C   0  0
    0.0427  -14.6734    0.0000 C   0  0
    1.1767  -15.6552    0.0000 C   0  0
    2.5940  -15.1640    0.0000 C   0  0
    2.8773  -13.6910    0.0000 C   0  0
    4.2946  -13.1998    0.0000 Cl  0  0
  1  2  1  0
  2  3  1  0
  3  4  1  0
  4  5  2  0
  4  6  1  0
  6  7  2  0
  7  8  1  0
  8  9  1  0
  9 10  2  0
 10 11  1  0
 11 12  1  0
 11 13  2  0
 13 14  1  0
 14 15  2  0
 15  9  1  0
 15 16  1  0
 16  7  1  0
 16 17  1  0
  6 18  1  0
 18 19  1  0
 19  3  1  0
 19 20  2  0
 20 21  1  0
 21 22  2  0
 22 23  1  0
 23 24  2  0
 24 25  1  0
 25 26  2  0
 26 21  1  0
 26 27  1  0
 27 28  1  0
 28 29  2  0
 29 30  1  0
 30 31  2  0
 31 32  1  0
 32 33  2  0
 33 28  1  0
 33 34  1  0
M  END
> <assay_chembl_id>
CHEMBL4619830

> <assay_description>
Antiproliferative activity against human 22Rv1 cells assessed as cell growth inhibition

> <document_journal>
Bioorg Med Chem Lett

> <molecule_chembl_id>
CHEMBL4634602

> <standard_value>
490

> <IC50_uM>
0.49

> <Activity>
Yes

> <Canonical_Smiles>
CCn1c(=O)/c(=C2\Sc3cc(F)ccc3N2C)s/c1=C\c1ccncc1Nc1ccccc1Cl

$$$$

  SciTegic03142313312D

 34 38  0  0  0  0            999 V2000
    5.5635   -8.3787    0.0000 C   0  0
    5.5261   -6.8792    0.0000 C   0  0
    4.2107   -6.1619    0.0000 N   0  0
    4.0146   -4.6747    0.0000 C   0  0
    5.0960   -3.6352    0.0000 O   0  0
    2.5536   -4.4230    0.0000 C   0  0
    1.8032   -3.1233    0.0000 C   0  0
    2.4133   -1.7530    0.0000 S   0  0
    1.2990   -0.7500    0.0000 C   0  0
    1.2990    0.7500    0.0000 C   0  0
    0.0000    1.5000    0.0000 C   0  0
    0.0000    3.0000    0.0000 F   0  0
   -1.2990    0.7500    0.0000 C   0  0
   -1.2990   -0.7500    0.0000 C   0  0
    0.0000   -1.5000    0.0000 C   0  0
    0.3114   -2.9665    0.0000 N   0  0
   -0.6923   -4.0811    0.0000 C   0  0
    1.8242   -5.7201    0.0000 S   0  0
    2.8570   -6.8080    0.0000 C   0  0
    2.5812   -8.2806    0.0000 C   0  0
    1.1659   -8.7799    0.0000 C   0  0
    0.0283   -7.8020    0.0000 C   0  0
   -1.3872   -8.2982    0.0000 C   0  0
   -1.6654   -9.7722    0.0000 N   0  0
   -0.5279  -10.7500    0.0000 C   0  0
    0.8877  -10.2539    0.0000 C   0  0
    2.0237  -11.2347    0.0000 N   0  0
    1.7433  -12.7091    0.0000 C   0  0
    0.3259  -13.2003    0.0000 C   0  0
    0.0427  -14.6734    0.0000 C   0  0
    1.1767  -15.6552    0.0000 C   0  0
    2.5940  -15.1640    0.0000 C   0  0
    2.8773  -13.6910    0.0000 C   0  0
    4.2946  -13.1998    0.0000 F   0  0
  1  2  1  0
  2  3  1  0
  3  4  1  0
  4  5  2  0
  4  6  1  0
  6  7  2  0
  7  8  1  0
  8  9  1  0
  9 10  2  0
 10 11  1  0
 11 12  1  0
 11 13  2  0
 13 14  1  0
 14 15  2  0
 15  9  1  0
 15 16  1  0
 16  7  1  0
 16 17  1  0
  6 18  1  0
 18 19  1  0
 19  3  1  0
 19 20  2  0
 20 21  1  0
 21 22  2  0
 22 23  1  0
 23 24  2  0
 24 25  1  0
 25 26  2  0
 26 21  1  0
 26 27  1  0
 27 28  1  0
 28 29  2  0
 29 30  1  0
 30 31  2  0
 31 32  1  0
 32 33  2  0
 33 28  1  0
 33 34  1  0
M  END
> <assay_chembl_id>
CHEMBL4619830

> <assay_description>
Antiproliferative activity against human 22Rv1 cells assessed as cell growth inhibition

> <document_journal>
Bioorg Med Chem Lett

> <molecule_chembl_id>
CHEMBL4639416

> <standard_value>
150

> <IC50_uM>
0.15

> <Activity>
Yes

> <Canonical_Smiles>
CCn1c(=O)/c(=C2\Sc3cc(F)ccc3N2C)s/c1=C\c1ccncc1Nc1ccccc1F

$$$$

  SciTegic03142313312D

 26 30  0  0  0  0            999 V2000
    3.8919   -5.2525    0.0000 O   0  0
    3.8943   -3.7525    0.0000 C   0  0
    5.1945   -3.0045    0.0000 C   0  0
    5.1969   -1.5045    0.0000 C   0  0
    3.8991   -0.7525    0.0000 C   0  0
    2.5987   -1.5004    0.0000 C   0  0
    1.2990   -0.7500    0.0000 C   0  0
    1.2990    0.7500    0.0000 N   0  0
    0.0000    1.5000    0.0000 C   0  0
    0.0000    3.0008    0.0000 N   0  0
    1.2978    3.7529    0.0000 C   0  0
    1.2954    5.2529    0.0000 C   0  0
   -0.0048    6.0009    0.0000 O   0  0
   -1.3026    5.2488    0.0000 C   0  0
   -1.3002    3.7488    0.0000 C   0  0
   -1.2990    0.7500    0.0000 C   0  0
   -2.7248    1.2135    0.0000 O   0  0
   -3.6065    0.0000    0.0000 C   0  0
   -5.0972   -0.1561    0.0000 N   0  0
   -5.7073   -1.5264    0.0000 C   0  0
   -4.8256   -2.7399    0.0000 C   0  0
   -3.3339   -2.5831    0.0000 C   0  0
   -2.7248   -1.2135    0.0000 C   0  0
   -1.2990   -0.7500    0.0000 C   0  0
    0.0000   -1.5000    0.0000 N   0  0
    2.5965   -3.0004    0.0000 C   0  0
  1  2  1  0
  2  3  2  0
  3  4  1  0
  4  5  2  0
  5  6  1  0
  6  7  1  0
  7  8  2  0
  8  9  1  0
  9 10  1  0
 10 11  1  0
 11 12  1  0
 12 13  1  0
 13 14  1  0
 14 15  1  0
 15 10  1  0
  9 16  2  0
 16 17  1  0
 17 18  1  0
 18 19  2  0
 19 20  1  0
 20 21  2  0
 21 22  1  0
 22 23  2  0
 23 18  1  0
 23 24  1  0
 24 16  1  0
 24 25  2  0
 25  7  1  0
  6 26  2  0
 26  2  1  0
M  END
> <assay_chembl_id>
CHEMBL4624723

> <assay_description>
Antiproliferative activity against human 22Rv1 cells assessed as reduction in cell viability incubated for 4 days by coulter counter method

> <document_journal>
Bioorg Med Chem Lett

> <molecule_chembl_id>
CHEMBL573339

> <standard_value>
100

> <IC50_uM>
0.1

> <Activity>
Yes

> <Canonical_Smiles>
Oc1cccc(-c2nc(N3CCOCC3)c3oc4ncccc4c3n2)c1

$$$$

  SciTegic03142313312D

 34 39  0  0  0  0            999 V2000
    4.2114   -8.4480    0.0000 C   0  0
    4.6347   -7.5420    0.0000 C   0  0
    6.1245   -7.3678    0.0000 C   0  0
    5.1027   -6.1169    0.0000 O   0  0
    3.8919   -5.2532    0.0000 B   0  0
    3.8943   -3.7525    0.0000 C   0  0
    5.1945   -3.0045    0.0000 C   0  0
    5.1969   -1.5045    0.0000 C   0  0
    3.8991   -0.7525    0.0000 C   0  0
    2.5987   -1.5004    0.0000 C   0  0
    1.2990   -0.7500    0.0000 C   0  0
    1.2990    0.7500    0.0000 N   0  0
    0.0000    1.5000    0.0000 C   0  0
    0.0000    3.0008    0.0000 N   0  0
    1.2978    3.7529    0.0000 C   0  0
    1.2954    5.2529    0.0000 C   0  0
   -0.0048    6.0009    0.0000 O   0  0
   -1.3026    5.2488    0.0000 C   0  0
   -1.3002    3.7488    0.0000 C   0  0
   -1.2990    0.7500    0.0000 C   0  0
   -2.7248    1.2135    0.0000 O   0  0
   -3.6065    0.0000    0.0000 C   0  0
   -5.0972   -0.1561    0.0000 N   0  0
   -5.7073   -1.5264    0.0000 C   0  0
   -4.8256   -2.7399    0.0000 C   0  0
   -3.3339   -2.5831    0.0000 C   0  0
   -2.7248   -1.2135    0.0000 C   0  0
   -1.2990   -0.7500    0.0000 C   0  0
    0.0000   -1.5000    0.0000 N   0  0
    2.5965   -3.0004    0.0000 C   0  0
    2.6757   -6.1092    0.0000 O   0  0
    3.1347   -7.5373    0.0000 C   0  0
    3.5522   -8.4459    0.0000 C   0  0
    1.6460   -7.3536    0.0000 C   0  0
  1  2  1  0
  2  3  1  0
  2  4  1  0
  4  5  1  0
  5  6  1  0
  6  7  2  0
  7  8  1  0
  8  9  2  0
  9 10  1  0
 10 11  1  0
 11 12  2  0
 12 13  1  0
 13 14  1  0
 14 15  1  0
 15 16  1  0
 16 17  1  0
 17 18  1  0
 18 19  1  0
 19 14  1  0
 13 20  2  0
 20 21  1  0
 21 22  1  0
 22 23  2  0
 23 24  1  0
 24 25  2  0
 25 26  1  0
 26 27  2  0
 27 22  1  0
 27 28  1  0
 28 20  1  0
 28 29  2  0
 29 11  1  0
 10 30  2  0
 30  6  1  0
  5 31  1  0
 31 32  1  0
 32  2  1  0
 32 33  1  0
 32 34  1  0
M  END
> <assay_chembl_id>
CHEMBL4624723

> <assay_description>
Antiproliferative activity against human 22Rv1 cells assessed as reduction in cell viability incubated for 4 days by coulter counter method

> <document_journal>
Bioorg Med Chem Lett

> <molecule_chembl_id>
CHEMBL4636906

> <standard_value>
660

> <IC50_uM>
0.66

> <Activity>
Yes

> <Canonical_Smiles>
CC1(C)OB(c2cccc(-c3nc(N4CCOCC4)c4oc5ncccc5c4n3)c2)OC1(C)C

$$$$

  SciTegic03142313312D

 19 20  0  0  0  0            999 V2000
    9.0983   -0.7368    0.0000 C   0  0
    7.8003   -1.4887    0.0000 N   0  0
    7.8029   -2.9887    0.0000 C   0  0
    6.4990   -0.7409    0.0000 C   0  0
    6.4964    0.7591    0.0000 S   0  0
    5.2003   -1.4932    0.0000 N   0  0
    3.8990   -0.7455    0.0000 N   0  0
    2.6003   -1.4977    0.0000 C   0  0
    1.2990   -0.7500    0.0000 C   0  0
    1.2990    0.7500    0.0000 N   0  0
    0.0000    1.5000    0.0000 C   0  0
   -1.2990    0.7500    0.0000 C   0  0
   -1.2990   -0.7500    0.0000 C   0  0
   -2.5981   -1.5000    0.0000 C   0  0
   -2.5981   -3.0000    0.0000 C   0  0
   -3.8971   -3.7500    0.0000 F   0  0
   -1.2990   -3.7500    0.0000 C   0  0
    0.0000   -3.0000    0.0000 C   0  0
    0.0000   -1.5000    0.0000 C   0  0
  1  2  1  0
  2  3  1  0
  2  4  1  0
  4  5  2  0
  4  6  1  0
  6  7  1  0
  7  8  2  3
  8  9  1  0
  9 10  2  0
 10 11  1  0
 11 12  2  0
 12 13  1  0
 13 14  2  0
 14 15  1  0
 15 16  1  0
 15 17  2  0
 17 18  1  0
 18 19  2  0
 19  9  1  0
 19 13  1  0
M  END
> <assay_chembl_id>
CHEMBL4699939

> <assay_description>
Cytotoxicity against human 22Rv1 cells assessed as reduction in cell viability in presence of Cu2+ incubated for 72 hrs by cell titer-glo luminescent cell viability assay

> <document_journal>
RSC Med Chem

> <molecule_chembl_id>
CHEMBL4764390

> <standard_value>
1

> <IC50_uM>
0.001

> <Activity>
Yes

> <Canonical_Smiles>
CN(C)C(=S)NN=Cc1nccc2cc(F)ccc12

$$$$

  SciTegic03142313312D

 32 33  0  0  0  0            999 V2000
    5.1937   -3.0093    0.0000 C   0  0
    3.8933   -3.7570    0.0000 C   0  0  3  0  0  0
    3.8962   -2.2570    0.0000 O   0  0
    2.5951   -3.0039    0.0000 C   0  0
    2.5973   -1.5031    0.0000 S   0  0  3  0  0  0
    3.8976   -0.7553    0.0000 O   0  0
    1.2990   -0.7500    0.0000 C   0  0
    1.2990    0.7500    0.0000 C   0  0
    0.0000    1.5000    0.0000 C   0  0
   -1.2990    0.7500    0.0000 C   0  0
   -2.5988    1.5004    0.0000 C   0  0
   -2.5998    3.0004    0.0000 F   0  0
   -3.8976    0.7500    0.0000 F   0  0
   -3.8982    2.2498    0.0000 F   0  0
   -1.2990   -0.7500    0.0000 C   0  0
    0.0000   -1.5000    0.0000 C   0  0
    3.8912   -5.2578    0.0000 C   0  0
    2.5909   -6.0056    0.0000 O   0  0
    5.1894   -6.0109    0.0000 N   0  0
    5.1873   -7.5117    0.0000 C   0  0
    3.8856   -8.2573    0.0000 C   0  0
    3.8804   -9.7573    0.0000 C   0  0
    5.1769  -10.5118    0.0000 C   0  0
    5.1748  -12.0126    0.0000 N   0  3
    6.4723  -12.7653    0.0000 O   0  0
    3.8745  -12.7604    0.0000 O   0  5
    6.4785   -9.7663    0.0000 C   0  0
    6.4837   -8.2663    0.0000 C   0  0
    7.7860   -7.5204    0.0000 C   0  0
    9.0829   -8.2741    0.0000 F   0  0
    7.7908   -6.0204    0.0000 F   0  0
    9.0873   -6.7743    0.0000 F   0  0
  2  1  1  4
  2  3  1  0
  2  4  1  0
  5  4  1  4
  5  6  2  0
  5  7  1  0
  7  8  2  0
  8  9  1  0
  9 10  2  0
 10 11  1  0
 11 12  1  0
 11 13  1  0
 11 14  1  0
 10 15  1  0
 15 16  2  0
 16  7  1  0
  2 17  1  0
 17 18  2  0
 17 19  1  0
 19 20  1  0
 20 21  2  0
 21 22  1  0
 22 23  2  0
 23 24  1  0
 24 25  2  0
 24 26  1  0
 23 27  1  0
 27 28  2  0
 28 20  1  0
 28 29  1  0
 29 30  1  0
 29 31  1  0
 29 32  1  0
M  CHG  2  24   1  26  -1
M  END
> <assay_chembl_id>
CHEMBL4713830

> <assay_description>
Antiproliferative activity against human 22Rv1 cells assessed as reduction in cell viability

> <document_journal>
Bioorg Med Chem Lett

> <molecule_chembl_id>
CHEMBL4779433

> <standard_value>
21130

> <IC50_uM>
21.13

> <Activity>
No

> <Canonical_Smiles>
CC(O)(C[S+]([O-])c1ccc(C(F)(F)F)cc1)C(=O)Nc1ccc([N+](=O)[O-])cc1C(F)(F)F

$$$$

  SciTegic03142313312D

 30 31  0  0  0  0            999 V2000
    5.2029   -2.9932    0.0000 C   0  0
    5.2003   -1.4932    0.0000 C   0  0  3  0  0  0
    3.9027   -2.2457    0.0000 O   0  0
    3.8990   -0.7455    0.0000 C   0  0
    2.6003   -1.4977    0.0000 S   0  0  3  0  0  0
    2.6030   -2.9977    0.0000 O   0  0
    1.2990   -0.7500    0.0000 C   0  0
    1.2990    0.7500    0.0000 C   0  0
    0.0000    1.5000    0.0000 C   0  0
   -1.2990    0.7500    0.0000 C   0  0
   -2.5981    1.5000    0.0000 F   0  0
   -1.2990   -0.7500    0.0000 C   0  0
    0.0000   -1.5000    0.0000 C   0  0
    0.0000   -3.0000    0.0000 F   0  0
    6.4990   -0.7409    0.0000 C   0  0
    6.4964    0.7591    0.0000 O   0  0
    7.8003   -1.4887    0.0000 N   0  0
    9.0990   -0.7364    0.0000 C   0  0
    9.0939    0.7637    0.0000 C   0  0
   10.3903    1.5181    0.0000 C   0  0
   11.6919    0.7726    0.0000 C   0  0
   12.9906    1.5249    0.0000 N   0  3
   14.2912    0.7775    0.0000 O   0  0
   12.9881    3.0249    0.0000 O   0  5
   11.6971   -0.7274    0.0000 C   0  0
   10.4007   -1.4818    0.0000 C   0  0
   10.4059   -2.9827    0.0000 C   0  0
   11.7071   -3.7289    0.0000 F   0  0
    9.1093   -3.7368    0.0000 F   0  0
   10.4104   -4.4827    0.0000 F   0  0
  2  1  1  4
  2  3  1  0
  2  4  1  0
  5  4  1  4
  5  6  2  0
  5  7  1  0
  7  8  2  0
  8  9  1  0
  9 10  2  0
 10 11  1  0
 10 12  1  0
 12 13  2  0
 13  7  1  0
 13 14  1  0
  2 15  1  0
 15 16  2  0
 15 17  1  0
 17 18  1  0
 18 19  2  0
 19 20  1  0
 20 21  2  0
 21 22  1  0
 22 23  2  0
 22 24  1  0
 21 25  1  0
 25 26  2  0
 26 18  1  0
 26 27  1  0
 27 28  1  0
 27 29  1  0
 27 30  1  0
M  CHG  2  22   1  24  -1
M  END
> <assay_chembl_id>
CHEMBL4713830

> <assay_description>
Antiproliferative activity against human 22Rv1 cells assessed as reduction in cell viability

> <document_journal>
Bioorg Med Chem Lett

> <molecule_chembl_id>
CHEMBL4760488

> <standard_value>
51143

> <IC50_uM>
51.143

> <Activity>
No

> <Canonical_Smiles>
CC(O)(C[S+]([O-])c1ccc(F)cc1F)C(=O)Nc1ccc([N+](=O)[O-])cc1C(F)(F)F

$$$$

  SciTegic03142313312D

 32 33  0  0  0  0            999 V2000
    5.1937   -3.0093    0.0000 C   0  0
    3.8933   -3.7570    0.0000 C   0  0  3  0  0  0
    3.8962   -2.2570    0.0000 O   0  0
    2.5951   -3.0039    0.0000 C   0  0
    2.5973   -1.5031    0.0000 S   0  0  3  0  0  0
    3.8976   -0.7553    0.0000 O   0  0
    1.2990   -0.7500    0.0000 C   0  0
    1.2990    0.7500    0.0000 C   0  0
    0.0000    1.5000    0.0000 C   0  0
   -1.2990    0.7500    0.0000 C   0  0
   -2.6003    1.4977    0.0000 O   0  0
   -3.8990    0.7455    0.0000 C   0  0
   -5.1996    1.4928    0.0000 F   0  0
   -3.8964   -0.7545    0.0000 F   0  0
   -5.1966   -0.0070    0.0000 F   0  0
   -1.2990   -0.7500    0.0000 C   0  0
    0.0000   -1.5000    0.0000 C   0  0
    3.8912   -5.2578    0.0000 C   0  0
    2.5909   -6.0056    0.0000 O   0  0
    5.1894   -6.0109    0.0000 N   0  0
    5.1873   -7.5117    0.0000 C   0  0
    6.4837   -8.2663    0.0000 C   0  0
    6.4785   -9.7663    0.0000 C   0  0
    5.1769  -10.5118    0.0000 C   0  0
    5.1717  -12.0126    0.0000 C   0  0
    5.1665  -13.5126    0.0000 N   0  0
    3.8804   -9.7573    0.0000 C   0  0
    2.5781  -10.5032    0.0000 C   0  0
    2.5720  -12.0032    0.0000 F   0  0
    1.2819   -9.7483    0.0000 F   0  0
    1.2761  -11.2481    0.0000 F   0  0
    3.8856   -8.2573    0.0000 C   0  0
  2  1  1  4
  2  3  1  0
  2  4  1  0
  5  4  1  4
  5  6  2  0
  5  7  1  0
  7  8  2  0
  8  9  1  0
  9 10  2  0
 10 11  1  0
 11 12  1  0
 12 13  1  0
 12 14  1  0
 12 15  1  0
 10 16  1  0
 16 17  2  0
 17  7  1  0
  2 18  1  0
 18 19  2  0
 18 20  1  0
 20 21  1  0
 21 22  2  0
 22 23  1  0
 23 24  2  0
 24 25  1  0
 25 26  3  0
 24 27  1  0
 27 28  1  0
 28 29  1  0
 28 30  1  0
 28 31  1  0
 27 32  2  0
 32 21  1  0
M  END
> <assay_chembl_id>
CHEMBL4713830

> <assay_description>
Antiproliferative activity against human 22Rv1 cells assessed as reduction in cell viability

> <document_journal>
Bioorg Med Chem Lett

> <molecule_chembl_id>
CHEMBL4783997

> <standard_value>
41160

> <IC50_uM>
41.16

> <Activity>
No

> <Canonical_Smiles>
CC(O)(C[S+]([O-])c1ccc(OC(F)(F)F)cc1)C(=O)Nc1ccc(C#N)c(C(F)(F)F)c1

$$$$

  SciTegic03142313312D

 31 32  0  0  0  0            999 V2000
    5.1937   -3.0093    0.0000 C   0  0
    3.8933   -3.7570    0.0000 C   0  0  3  0  0  0
    3.8962   -2.2570    0.0000 O   0  0
    2.5951   -3.0039    0.0000 C   0  0
    2.5973   -1.5031    0.0000 S   0  0  3  0  0  0
    3.8976   -0.7553    0.0000 O   0  0
    1.2990   -0.7500    0.0000 C   0  0
    1.2990    0.7500    0.0000 C   0  0
    0.0000    1.5000    0.0000 C   0  0
   -1.2990    0.7500    0.0000 C   0  0
   -2.5988    1.5004    0.0000 C   0  0
   -2.5998    3.0004    0.0000 F   0  0
   -3.8976    0.7500    0.0000 F   0  0
   -3.8982    2.2498    0.0000 F   0  0
   -1.2990   -0.7500    0.0000 C   0  0
    0.0000   -1.5000    0.0000 N   0  0
    3.8912   -5.2578    0.0000 C   0  0
    2.5909   -6.0056    0.0000 O   0  0
    5.1894   -6.0109    0.0000 N   0  0
    5.1873   -7.5117    0.0000 C   0  0
    6.4837   -8.2663    0.0000 C   0  0
    6.4785   -9.7663    0.0000 C   0  0
    5.1769  -10.5118    0.0000 C   0  0
    5.1717  -12.0126    0.0000 C   0  0
    5.1665  -13.5126    0.0000 N   0  0
    3.8804   -9.7573    0.0000 C   0  0
    2.5781  -10.5032    0.0000 C   0  0
    2.5720  -12.0032    0.0000 F   0  0
    1.2819   -9.7483    0.0000 F   0  0
    1.2761  -11.2481    0.0000 F   0  0
    3.8856   -8.2573    0.0000 C   0  0
  2  1  1  4
  2  3  1  0
  2  4  1  0
  5  4  1  4
  5  6  2  0
  5  7  1  0
  7  8  2  0
  8  9  1  0
  9 10  2  0
 10 11  1  0
 11 12  1  0
 11 13  1  0
 11 14  1  0
 10 15  1  0
 15 16  2  0
 16  7  1  0
  2 17  1  0
 17 18  2  0
 17 19  1  0
 19 20  1  0
 20 21  2  0
 21 22  1  0
 22 23  2  0
 23 24  1  0
 24 25  3  0
 23 26  1  0
 26 27  1  0
 27 28  1  0
 27 29  1  0
 27 30  1  0
 26 31  2  0
 31 20  1  0
M  END
> <assay_chembl_id>
CHEMBL4713830

> <assay_description>
Antiproliferative activity against human 22Rv1 cells assessed as reduction in cell viability

> <document_journal>
Bioorg Med Chem Lett

> <molecule_chembl_id>
CHEMBL4756981

> <standard_value>
65450

> <IC50_uM>
65.45

> <Activity>
No

> <Canonical_Smiles>
CC(O)(C[S+]([O-])c1ccc(C(F)(F)F)cn1)C(=O)Nc1ccc(C#N)c(C(F)(F)F)c1

$$$$

  SciTegic03142313312D

 33 38  0  0  0  0            999 V2000
   -0.6923   -4.0811    0.0000 C   0  0
    0.3114   -2.9665    0.0000 C   0  0
    1.8032   -3.1233    0.0000 N   0  0
    2.4133   -1.7530    0.0000 O   0  0
    1.2990   -0.7500    0.0000 C   0  0
    1.2990    0.7500    0.0000 C   0  0
    2.5981    1.5000    0.0000 Br  0  0
    0.0000    1.5000    0.0000 C   0  0
   -1.2990    0.7500    0.0000 C   0  0
   -2.5987    1.5004    0.0000 C   0  0
   -3.9492    0.8772    0.0000 N   0  0
   -4.9539    1.9899    0.0000 C   0  0
   -6.4539    1.9875    0.0000 C   0  0
   -7.2060    3.2854    0.0000 C   0  0
   -6.4580    4.5856    0.0000 C   0  0
   -7.2104    5.8841    0.0000 N   0  0
   -8.7105    5.8842    0.0000 C   0  0
   -9.4605    7.1832    0.0000 C   0  0
   -8.7105    8.4823    0.0000 O   0  0
   -7.2105    8.4823    0.0000 C   0  0
   -6.4605    7.1832    0.0000 C   0  0
   -4.9580    4.5880    0.0000 C   0  0
   -4.2060    3.2901    0.0000 C   0  0
   -2.7390    2.9810    0.0000 N   0  0
   -1.6177    3.9746    0.0000 C   0  0
   -0.1937    3.5003    0.0000 C   0  0
    0.9304    4.4935    0.0000 C   0  0
    2.3526    4.0166    0.0000 C   0  0
    2.6507    2.5465    0.0000 C   0  0
    1.5266    1.5533    0.0000 C   0  0
    0.1044    2.0302    0.0000 C   0  0
   -1.2990   -0.7500    0.0000 C   0  0
    0.0000   -1.5000    0.0000 C   0  0
  1  2  1  0
  2  3  2  0
  3  4  1  0
  4  5  1  0
  5  6  2  0
  6  7  1  0
  6  8  1  0
  8  9  2  0
  9 10  1  0
 10 11  2  0
 11 12  1  0
 12 13  2  0
 13 14  1  0
 14 15  2  0
 15 16  1  0
 16 17  1  0
 17 18  1  0
 18 19  1  0
 19 20  1  0
 20 21  1  0
 21 16  1  0
 15 22  1  0
 22 23  2  0
 23 12  1  0
 23 24  1  0
 24 10  1  0
 24 25  1  0
 25 26  1  0
 26 27  1  0
 27 28  1  0
 28 29  1  0
 29 30  1  0
 30 31  1  0
 31 26  1  0
  9 32  1  0
 32 33  2  0
 33  2  1  0
 33  5  1  0
M  END
> <assay_chembl_id>
CHEMBL4767063

> <assay_description>
Antiproliferative activity against AR-positive human 22Rv1 cells assessed as reduction in cell viability incubated for 96 hrs by cell-titer glo assay

> <document_journal>
J Med Chem

> <molecule_chembl_id>
CHEMBL4782221

> <standard_value>
640

> <IC50_uM>
0.64

> <Activity>
Yes

> <Canonical_Smiles>
Cc1noc2c(Br)cc(-c3nc4ccc(N5CCOCC5)cc4n3CC3CCCCC3)cc12

$$$$

  SciTegic03142313312D

 33 38  0  0  1  0            999 V2000
   -0.6923   -4.0811    0.0000 C   0  0
    0.3114   -2.9665    0.0000 C   0  0
    1.8032   -3.1233    0.0000 N   0  0
    2.4133   -1.7530    0.0000 O   0  0
    1.2990   -0.7500    0.0000 C   0  0
    1.2990    0.7500    0.0000 C   0  0
    0.0000    1.5000    0.0000 C   0  0
   -1.2990    0.7500    0.0000 C   0  0
   -2.5987    1.5004    0.0000 C   0  0
   -3.9492    0.8772    0.0000 N   0  0
   -4.9539    1.9899    0.0000 C   0  0
   -6.4539    1.9875    0.0000 C   0  0
   -7.2060    3.2854    0.0000 C   0  0
   -6.4580    4.5856    0.0000 C   0  0
   -7.2104    5.8841    0.0000 N   0  0
   -6.4605    7.1832    0.0000 C   0  0
   -7.2105    8.4823    0.0000 C   0  0
   -8.7105    8.4823    0.0000 O   0  0
   -9.4605    7.1832    0.0000 C   0  0
   -8.7105    5.8842    0.0000 C   0  0  2  0  0  0
   -9.4605    4.5852    0.0000 C   0  0
   -4.9580    4.5880    0.0000 C   0  0
   -4.2060    3.2901    0.0000 C   0  0
   -2.7390    2.9810    0.0000 N   0  0
   -1.6177    3.9746    0.0000 C   0  0
   -0.1937    3.5003    0.0000 C   0  0
    0.9304    4.4935    0.0000 C   0  0
    2.3526    4.0166    0.0000 C   0  0
    2.6507    2.5465    0.0000 C   0  0
    1.5266    1.5533    0.0000 C   0  0
    0.1044    2.0302    0.0000 C   0  0
   -1.2990   -0.7500    0.0000 C   0  0
    0.0000   -1.5000    0.0000 C   0  0
  1  2  1  0
  2  3  2  0
  3  4  1  0
  4  5  1  0
  5  6  2  0
  6  7  1  0
  7  8  2  0
  8  9  1  0
  9 10  2  0
 10 11  1  0
 11 12  2  0
 12 13  1  0
 13 14  2  0
 14 15  1  0
 15 16  1  0
 16 17  1  0
 17 18  1  0
 18 19  1  0
 19 20  1  0
 20 15  1  0
 20 21  1  1
 14 22  1  0
 22 23  2  0
 23 11  1  0
 23 24  1  0
 24  9  1  0
 24 25  1  0
 25 26  1  0
 26 27  1  0
 27 28  1  0
 28 29  1  0
 29 30  1  0
 30 31  1  0
 31 26  1  0
  8 32  1  0
 32 33  2  0
 33  2  1  0
 33  5  1  0
M  END
> <assay_chembl_id>
CHEMBL4767063

> <assay_description>
Antiproliferative activity against AR-positive human 22Rv1 cells assessed as reduction in cell viability incubated for 96 hrs by cell-titer glo assay

> <document_journal>
J Med Chem

> <molecule_chembl_id>
CHEMBL4791634

> <standard_value>
700

> <IC50_uM>
0.7

> <Activity>
Yes

> <Canonical_Smiles>
Cc1noc2ccc(-c3nc4ccc(N5CCOC[C@@H]5C)cc4n3CC3CCCCC3)cc12

$$$$

  SciTegic03142313312D

 31 33  0  0  1  0            999 V2000
    3.8626    2.2726    0.0000 C   0  0
    2.5637    1.5224    0.0000 O   0  0
    2.5629    0.0216    0.0000 C   0  0
    1.2990   -0.7500    0.0000 C   0  0  2  0  0  0
    1.2626   -2.2300    0.0000 C   0  0
    2.5235   -3.0440    0.0000 C   0  0
    2.4499   -4.5430    0.0000 C   0  0
    1.1154   -5.2280    0.0000 C   0  0
    3.7108   -5.3571    0.0000 C   0  0
    3.6373   -6.8552    0.0000 C   0  0
    5.0453   -4.6721    0.0000 C   0  0
    1.2990    0.7500    0.0000 N   0  0
    0.0000    1.5000    0.0000 C   0  0
    0.0000    3.0000    0.0000 C   0  0
   -1.2991    3.7500    0.0000 C   0  0
   -2.5981    3.0000    0.0000 C   0  0
   -3.8994    3.7477    0.0000 C   0  0
   -3.9020    5.2477    0.0000 O   0  0
   -5.1981    2.9954    0.0000 N   0  0
   -6.4994    3.7432    0.0000 C   0  0
   -7.8508    3.1221    0.0000 C   0  0
   -8.1539    1.6531    0.0000 O   0  0
   -8.8545    4.2368    0.0000 C   0  0
   -8.1045    5.5359    0.0000 C   0  0
   -6.6373    5.2240    0.0000 C   0  0
   -5.5166    6.2211    0.0000 O   0  0
   -2.5981    1.5000    0.0000 C   0  0
   -1.2990    0.7500    0.0000 C   0  0
   -1.2990   -0.7500    0.0000 C   0  0
    0.0000   -1.5000    0.0000 C   0  0  2  0  0  0
    0.0000   -3.0000    0.0000 Cl  0  0
  1  2  1  0
  2  3  1  0
  4  3  1  1
  4  5  1  0
  5  6  1  0
  6  7  1  0
  7  8  1  0
  7  9  2  0
  9 10  1  0
  9 11  1  0
  4 12  1  0
 12 13  1  0
 13 14  2  0
 14 15  1  0
 15 16  2  0
 16 17  1  0
 17 18  2  0
 17 19  1  0
 19 20  1  0
 20 21  2  0
 21 22  1  0
 21 23  1  0
 23 24  1  0
 24 25  1  0
 25 20  1  0
 25 26  2  0
 16 27  1  0
 27 28  2  0
 28 13  1  0
 28 29  1  0
 29 30  1  0
 30  4  1  0
 30 31  1  1
M  END
> <assay_chembl_id>
CHEMBL4809881

> <assay_description>
Cytotoxicity against human 22Rv1 cells

> <document_journal>
J Nat Prod

> <molecule_chembl_id>
CHEMBL4851816

> <standard_value>
270

> <IC50_uM>
0.27

> <Activity>
Yes

> <Canonical_Smiles>
COC[C@]1(CCC(C)=C(C)C)Nc2ccc(C(=O)NC3=C(O)CCC3=O)cc2C[C@@H]1Cl

$$$$

  SciTegic03142313312D

 39 40  0  0  1  0            999 V2000
    1.5209   -0.3790    0.0000 C   0  0
    2.8261    0.3603    0.0000 O   0  0
    4.1200   -0.4000    0.0000 C   0  0  1  0  0  0
    5.4200    0.3400    0.0000 C   0  0
    5.4200    1.8400    0.0000 C   0  0
    4.1200    2.6000    0.0000 C   0  0
    2.8100    1.8400    0.0000 C   0  0
    2.8075    0.3400    0.0000 C   0  0
    1.5100    2.6000    0.0000 C   0  0
    1.5125    4.1000    0.0000 O   0  0
    0.2000    1.8400    0.0000 N   0  0
   -1.0900    2.6000    0.0000 C   0  0
   -1.0900    4.1100    0.0000 C   0  0
   -2.4000    4.8600    0.0000 C   0  0
   -2.4025    6.3600    0.0000 O   0  0
   -3.7000    4.1100    0.0000 C   0  0
   -4.9989    4.8602    0.0000 O   0  0
   -3.7000    2.6000    0.0000 C   0  0
   -5.0100    1.8400    0.0000 C   0  0
   -5.0100    0.3400    0.0000 C   0  0  1  0  0  0
   -6.3055   -0.4161    0.0000 C   0  0
   -3.7000   -0.4000    0.0000 C   0  0
   -3.2700   -2.0600    0.0000 C   0  0  2  0  0  0
   -4.1920   -3.2317    0.0000 O   0  0
   -5.6765   -3.0162    0.0000 C   0  0
   -1.0900   -1.9100    0.0000 C   0  0  2  0  0  0
   -0.7453   -0.4501    0.0000 O   0  0
    0.2000   -2.6700    0.0000 C   0  0  1  0  0  0
    0.1950   -4.1700    0.0000 C   0  0
    1.5100   -1.9100    0.0000 C   0  0
    2.8100   -2.6700    0.0000 C   0  0
    2.8075   -4.1700    0.0000 C   0  0
    4.1200   -1.9100    0.0000 C   0  0  2  0  0  0
    5.4195   -2.6606    0.0000 O   0  0
    5.4202   -4.1615    0.0000 C   0  0
    4.1213   -4.9116    0.0000 N   0  0
    6.7191   -4.9117    0.0000 O   0  0
   -2.4000    1.8400    0.0000 C   0  0
   -2.4025    0.3400    0.0000 O   0  0
  1  2  1  0
  3  2  1  1
  3  4  1  0
  4  5  2  0
  5  6  1  0
  6  7  2  0
  7  8  1  0
  7  9  1  0
  9 10  2  0
  9 11  1  0
 11 12  1  0
 12 13  2  0
 13 14  1  0
 14 15  2  0
 14 16  1  0
 16 17  1  0
 16 18  2  0
 18 19  1  0
 19 20  1  0
 20 21  1  6
 20 22  1  0
 22 23  1  0
 23 24  1  1
 24 25  1  0
 23 26  1  0
 26 27  1  6
 26 28  1  0
 28 29  1  6
 28 30  1  0
 30 31  2  0
 31 32  1  0
 31 33  1  0
 33  3  1  0
 33 34  1  1
 34 35  1  0
 35 36  1  0
 35 37  2  0
 18 38  1  0
 38 12  1  0
 38 39  2  0
M  END
> <assay_chembl_id>
CHEMBL4809881

> <assay_description>
Cytotoxicity against human 22Rv1 cells

> <document_journal>
J Nat Prod

> <molecule_chembl_id>
CHEMBL394931

> <standard_value>
25000

> <IC50_uM>
25

> <Activity>
No

> <Canonical_Smiles>
CO[C@H]1/C=C\C=C(/C)C(=O)NC2=CC(=O)C(O)=C(C[C@@H](C)C[C@H](OC)[C@H](O)[C@@H](C)/C=C(\C)[C@@H]1OC(N)=O)C2=O

$$$$

  SciTegic03142313312D

 40 41  0  0  1  0            999 V2000
   -4.9919    6.3654    0.0000 C   0  0
   -4.9968    4.8654    0.0000 O   0  0
   -3.7000    4.1100    0.0000 C   0  0
   -3.7000    2.6000    0.0000 C   0  0
   -5.0100    1.8400    0.0000 C   0  0
   -5.0100    0.3400    0.0000 C   0  0  1  0  0  0
   -6.3055   -0.4161    0.0000 C   0  0
   -3.7000   -0.4000    0.0000 C   0  0
   -3.2700   -2.0600    0.0000 C   0  0  2  0  0  0
   -4.1920   -3.2317    0.0000 O   0  0
   -5.6765   -3.0162    0.0000 C   0  0
   -1.0900   -1.9100    0.0000 C   0  0  2  0  0  0
   -0.7453   -0.4501    0.0000 O   0  0
    0.2000   -2.6700    0.0000 C   0  0  1  0  0  0
    0.1950   -4.1700    0.0000 C   0  0
    1.5100   -1.9100    0.0000 C   0  0
    2.8100   -2.6700    0.0000 C   0  0
    2.8075   -4.1700    0.0000 C   0  0
    4.1200   -1.9100    0.0000 C   0  0  2  0  0  0
    5.4195   -2.6606    0.0000 O   0  0
    5.4202   -4.1615    0.0000 C   0  0
    4.1213   -4.9116    0.0000 N   0  0
    6.7191   -4.9117    0.0000 O   0  0
    4.1200   -0.4000    0.0000 C   0  0  1  0  0  0
    2.6430   -0.1342    0.0000 O   0  0
    1.6740   -1.2792    0.0000 C   0  0
    5.4200    0.3400    0.0000 C   0  0
    5.4200    1.8400    0.0000 C   0  0
    4.1200    2.6000    0.0000 C   0  0
    2.8100    1.8400    0.0000 C   0  0
    2.8075    0.3400    0.0000 C   0  0
    1.5100    2.6000    0.0000 C   0  0
    1.5125    4.1000    0.0000 O   0  0
    0.2000    1.8400    0.0000 N   0  0
   -1.0900    2.6000    0.0000 C   0  0
   -1.0900    4.1100    0.0000 C   0  0
   -2.4000    4.8600    0.0000 C   0  0
   -2.4025    6.3600    0.0000 O   0  0
   -2.4000    1.8400    0.0000 C   0  0
   -2.4025    0.3400    0.0000 O   0  0
  1  2  1  0
  2  3  1  0
  3  4  2  0
  4  5  1  0
  5  6  1  0
  6  7  1  6
  6  8  1  0
  8  9  1  0
  9 10  1  1
 10 11  1  0
  9 12  1  0
 12 13  1  6
 12 14  1  0
 14 15  1  6
 14 16  1  0
 16 17  2  0
 17 18  1  0
 17 19  1  0
 19 20  1  1
 20 21  1  0
 21 22  1  0
 21 23  2  0
 19 24  1  0
 24 25  1  1
 25 26  1  0
 24 27  1  0
 27 28  2  0
 28 29  1  0
 29 30  2  0
 30 31  1  0
 30 32  1  0
 32 33  2  0
 32 34  1  0
 34 35  1  0
 35 36  2  0
 36 37  1  0
 37  3  1  0
 37 38  2  0
 35 39  1  0
 39  4  1  0
 39 40  2  0
M  END
> <assay_chembl_id>
CHEMBL4809881

> <assay_description>
Cytotoxicity against human 22Rv1 cells

> <document_journal>
J Nat Prod

> <molecule_chembl_id>
CHEMBL278315

> <standard_value>
850

> <IC50_uM>
0.85

> <Activity>
Yes

> <Canonical_Smiles>
COC1=C2C[C@@H](C)C[C@H](OC)[C@H](O)[C@@H](C)/C=C(\C)[C@H](OC(N)=O)[C@@H](OC)/C=C\C=C(/C)C(=O)NC(=CC1=O)C2=O

$$$$

  SciTegic03142313312D

 37 38  0  0  1  0            999 V2000
    2.8240    4.8530    0.0000 C   0  0
    4.1217    4.1006    0.0000 O   0  0
    4.1200    2.6000    0.0000 C   0  0  1  0  0  0
    2.8100    1.8400    0.0000 C   0  0
    1.5100    2.6000    0.0000 C   0  0  2  0  0  0
    1.5125    4.1000    0.0000 C   0  0
    0.2000    1.8400    0.0000 C   0  0
   -1.0900    2.6000    0.0000 C   0  0
   -1.0900    4.1100    0.0000 C   0  0
   -2.4000    4.8600    0.0000 C   0  0
   -2.4025    6.3600    0.0000 O   0  0
   -3.7000    4.1100    0.0000 C   0  0
   -3.7000    2.6000    0.0000 C   0  0
   -2.4000    1.8400    0.0000 C   0  0
   -5.0100    1.8400    0.0000 N   0  0
   -5.0100    0.3400    0.0000 C   0  0
   -6.3055   -0.4161    0.0000 O   0  0
   -3.7000   -0.4000    0.0000 C   0  0
   -2.5105    0.5138    0.0000 C   0  0
   -3.2700   -2.0600    0.0000 C   0  0
   -1.0900   -1.9100    0.0000 C   0  0
    0.2000   -2.6700    0.0000 C   0  0
    1.5100   -1.9100    0.0000 C   0  0  2  0  0  0
    1.5117   -0.4094    0.0000 O   0  0
    0.2140    0.3430    0.0000 C   0  0
    2.8100   -2.6700    0.0000 C   0  0  1  0  0  0
    2.8021   -4.1706    0.0000 O   0  0
    1.4989   -4.9150    0.0000 C   0  0
    0.2036   -4.1585    0.0000 N   0  0
    1.4909   -6.4149    0.0000 O   0  0
    4.1200   -1.9100    0.0000 C   0  0
    5.4198   -2.6586    0.0000 C   0  0
    4.1200   -0.4000    0.0000 C   0  0
    5.4200    0.3400    0.0000 C   0  0  2  0  0  0
    6.7167   -0.4140    0.0000 C   0  0
    5.4200    1.8400    0.0000 C   0  0  1  0  0  0
    6.7211    2.5865    0.0000 O   0  0
  1  2  1  0
  3  2  1  6
  3  4  1  0
  4  5  1  0
  5  6  1  1
  5  7  1  0
  7  8  1  0
  8  9  2  0
  9 10  1  0
 10 11  1  0
 10 12  2  0
 12 13  1  0
 13 14  2  0
 14  8  1  0
 13 15  1  0
 15 16  1  0
 16 17  2  0
 16 18  1  0
 18 19  1  0
 18 20  2  0
 20 21  1  0
 21 22  1  0
 22 23  1  0
 23 24  1  6
 24 25  1  0
 23 26  1  0
 26 27  1  6
 27 28  1  0
 28 29  1  0
 28 30  2  0
 26 31  1  0
 31 32  1  0
 31 33  2  0
 33 34  1  0
 34 35  1  1
 34 36  1  0
 36  3  1  0
 36 37  1  6
M  END
> <assay_chembl_id>
CHEMBL4809881

> <assay_description>
Cytotoxicity against human 22Rv1 cells

> <document_journal>
J Nat Prod

> <molecule_chembl_id>
CHEMBL404493

> <standard_value>
35000

> <IC50_uM>
35

> <Activity>
No

> <Canonical_Smiles>
CO[C@H]1C[C@H](C)Cc2cc(O)cc(c2)NC(=O)/C(C)=C/CC[C@H](OC)[C@@H](OC(N)=O)/C(C)=C/[C@H](C)[C@H]1O

$$$$

  SciTegic03142313312D

 56 58  0  0  1  0            999 V2000
   -0.9840    8.3031    0.0000 C   0  0
    0.0514    9.3884    0.0000 C   0  0
    1.5101    9.0351    0.0000 C   0  0  2  0  0  0
    2.5471   10.1189    0.0000 C   0  0  1  0  0  0
    2.1270   11.5589    0.0000 C   0  0
    4.0042    9.7627    0.0000 O   0  0
    4.3838    8.3326    0.0000 C   0  0  1  0  0  0
    5.4215    9.4175    0.0000 O   0  0
    6.8789    9.0625    0.0000 C   0  0
    4.8039    6.8918    0.0000 C   0  0
    6.2611    6.5359    0.0000 C   0  0
    3.7668    5.8069    0.0000 C   0  0
    4.1870    4.3661    0.0000 C   0  0  2  0  0  0
    5.6441    4.0102    0.0000 C   0  0
    3.1478    3.2790    0.0000 C   0  0  1  0  0  0
    1.7403    3.8030    0.0000 O   0  0
    0.3986    3.1316    0.0000 C   0  0
   -0.8221    4.0034    0.0000 O   0  0
    0.1988    1.6459    0.0000 C   0  0
   -1.2256    1.1764    0.0000 C   0  0
   -1.6367   -0.2661    0.0000 C   0  0
   -3.1130   -0.5262    0.0000 C   0  0
   -3.7291   -1.8943    0.0000 C   0  0  2  0  0  0
   -4.7290   -1.8814    0.0000 C   0  0
   -3.1478   -3.2790    0.0000 C   0  0  1  0  0  0
   -4.1877   -4.3654    0.0000 C   0  0  1  0  0  0
   -3.7674   -5.8053    0.0000 C   0  0
   -5.6457   -4.0097    0.0000 C   0  0
   -6.6835   -5.0939    0.0000 C   0  0
   -6.2633   -6.5338    0.0000 C   0  0
   -8.1416   -4.7381    0.0000 C   0  0  1  0  0  0
   -9.1793   -5.8229    0.0000 O   0  0
   -8.7600   -7.2631    0.0000 C   0  0
   -7.0932   -3.6941    0.0000 C   0  0
   -7.5137   -2.2542    0.0000 C   0  0  1  0  0  0
   -6.4742   -1.1716    0.0000 O   0  0
   -5.5031   -1.4102    0.0000 C   0  0
   -8.9709   -1.8984    0.0000 C   0  0  2  0  0  0
   -9.3887   -0.4569    0.0000 C   0  0
   -8.3504    0.6257    0.0000 C   0  0
  -10.0076   -2.9825    0.0000 C   0  0  1  0  0  0
  -11.4648   -2.6268    0.0000 C   0  0
   -9.5871   -4.4224    0.0000 O   0  0
   -1.7403   -3.8030    0.0000 O   0  0
   -0.3986   -3.1316    0.0000 C   0  0
    0.8221   -4.0034    0.0000 O   0  0
   -0.1988   -1.6459    0.0000 C   0  0
    1.2256   -1.1764    0.0000 C   0  0
    1.6367    0.2661    0.0000 C   0  0
    3.1130    0.5262    0.0000 C   0  0
    3.7291    1.8943    0.0000 C   0  0  2  0  0  0
    5.2289    1.8750    0.0000 C   0  0
    3.3873    7.2389    0.0000 C   0  0
    1.9302    7.5951    0.0000 C   0  0  1  0  0  0
    0.8949    6.5086    0.0000 O   0  0
    1.3170    5.0692    0.0000 C   0  0
  1  2  1  0
  3  2  1  6
  3  4  1  0
  4  5  1  1
  4  6  1  0
  6  7  1  0
  7  8  1  6
  8  9  1  0
  7 10  1  0
 10 11  1  0
 10 12  2  0
 12 13  1  0
 13 14  1  6
 13 15  1  0
 15 16  1  6
 16 17  1  0
 17 18  2  0
 17 19  1  0
 19 20  2  0
 20 21  1  0
 21 22  2  0
 22 23  1  0
 23 24  1  1
 23 25  1  0
 25 26  1  0
 26 27  1  1
 26 28  1  0
 28 29  2  0
 29 30  1  0
 29 31  1  0
 31 32  1  1
 32 33  1  0
 31 34  1  0
 34 35  1  0
 35 36  1  6
 36 37  1  0
 35 38  1  0
 38 39  1  1
 39 40  1  0
 38 41  1  0
 41 42  1  6
 41 43  1  0
 43 31  1  0
 25 44  1  6
 44 45  1  0
 45 46  2  0
 45 47  1  0
 47 48  2  0
 48 49  1  0
 49 50  2  0
 50 51  1  0
 51 15  1  0
 51 52  1  1
  7 53  1  0
 53 54  1  0
 54  3  1  0
 54 55  1  1
 55 56  1  0
M  END
> <assay_chembl_id>
CHEMBL4809881

> <assay_description>
Cytotoxicity against human 22Rv1 cells

> <document_journal>
J Nat Prod

> <molecule_chembl_id>
CHEMBL4846650

> <standard_value>
23000

> <IC50_uM>
23

> <Activity>
No

> <Canonical_Smiles>
CC[C@@H]1[C@@H](C)O[C@@](OC)(/C(C)=C/[C@H](C)[C@H]2OC(=O)/C=C/C=C/[C@H](C)[C@@H]([C@@H](C)/C=C(\C)[C@@]3(OC)C[C@@H](OC)[C@H](CC)[C@@H](C)O3)OC(=O)/C=C/C=C/[C@@H]2C)C[C@H]1OC

$$$$

  SciTegic03142313312D

 35 38  0  0  0  0            999 V2000
    3.8983   -0.7459    0.0000 C   0  0
    2.6003   -1.4977    0.0000 O   0  0
    1.2990   -0.7500    0.0000 C   0  0
    1.2990    0.7500    0.0000 C   0  0
    0.0000    1.5000    0.0000 C   0  0
    0.0000    3.0000    0.0000 O   0  0
   -1.2990    0.7500    0.0000 C   0  0
   -2.5981    1.5000    0.0000 C   0  0
   -2.5981    3.0000    0.0000 O   0  0
   -3.8971    0.7500    0.0000 C   0  0
   -3.8971   -0.7500    0.0000 C   0  0
   -5.1968   -1.5004    0.0000 C   0  0
   -6.4971   -0.7525    0.0000 C   0  0
   -7.7950   -1.5046    0.0000 C   0  0
   -7.7926   -3.0046    0.0000 C   0  0
   -9.0896   -3.7598    0.0000 N   0  0
   -9.0851   -5.2606    0.0000 C   0  0
   -7.7835   -6.0062    0.0000 O   0  0
  -10.3821   -6.0157    0.0000 N   0  0
  -10.3797   -7.5158    0.0000 C   0  0
  -11.6776   -8.2679    0.0000 C   0  0  3  0  0  0
  -11.6751   -9.7679    0.0000 C   0  0
  -12.9778   -7.5200    0.0000 N   0  0
  -12.9802   -6.0200    0.0000 C   0  0  3  0  0  0
  -14.2805   -5.2721    0.0000 C   0  0
  -11.6824   -5.2679    0.0000 C   0  0
   -6.4923   -3.7525    0.0000 C   0  0
   -5.1945   -3.0005    0.0000 C   0  0
   -2.5981   -1.5000    0.0000 O   0  0
   -1.2990   -0.7500    0.0000 C   0  0
    0.0000   -1.5000    0.0000 C   0  0
    0.0031   -3.0008    0.0000 O   0  0
    1.3039   -3.7494    0.0000 C   0  0
    1.3070   -5.2494    0.0000 C   0  0
    2.6016   -2.9971    0.0000 C   0  0
  1  2  1  0
  2  3  1  0
  3  4  2  0
  4  5  1  0
  5  6  1  0
  5  7  2  0
  7  8  1  0
  8  9  2  0
  8 10  1  0
 10 11  2  0
 11 12  1  0
 12 13  2  0
 13 14  1  0
 14 15  2  0
 15 16  1  0
 16 17  1  0
 17 18  2  0
 17 19  1  0
 19 20  1  0
 20 21  1  0
 21 22  1  4
 21 23  1  0
 23 24  1  0
 24 25  1  4
 24 26  1  0
 26 19  1  0
 15 27  1  0
 27 28  2  0
 28 12  1  0
 11 29  1  0
 29 30  1  0
 30  7  1  0
 30 31  2  0
 31  3  1  0
 31 32  1  0
 32 33  1  0
 33 34  1  0
 33 35  1  0
M  END
> <assay_chembl_id>
CHEMBL4817578

> <assay_description>
Antiproliferative activity against AR-positive human 22RV1 cells assessed as reduction in cell viability incubated for 3 days by MTT assay

> <document_journal>
Eur J Med Chem

> <molecule_chembl_id>
CHEMBL4846250

> <standard_value>
800

> <IC50_uM>
0.8

> <Activity>
Yes

> <Canonical_Smiles>
COc1cc(O)c2c(=O)cc(-c3ccc(NC(=O)N4CC(C)NC(C)C4)cc3)oc2c1OC(C)C

$$$$

  SciTegic03142313312D

 37 42  0  0  0  0            999 V2000
   -1.1210  -12.2477    0.0000 C   0  0
   -0.6485  -10.8241    0.0000 C   0  0
    0.8208  -10.5219    0.0000 C   0  0
   -1.6433   -9.7038    0.0000 C   0  0
   -1.3244   -8.2389    0.0000 C   0  0
   -0.0216   -7.4954    0.0000 C   0  0
   -0.0140   -5.9954    0.0000 C   0  0
    1.2883   -5.2495    0.0000 C   0  0
    2.5847   -6.0040    0.0000 C   0  0
    3.8864   -5.2585    0.0000 C   0  0
    3.8915   -3.7585    0.0000 N   0  0
    2.5951   -3.0039    0.0000 C   0  0
    2.5973   -1.5031    0.0000 N   0  0
    1.2990   -0.7500    0.0000 C   0  0
    1.2990    0.7500    0.0000 C   0  0
    0.0000    1.5000    0.0000 C   0  0
   -1.2990    0.7500    0.0000 C   0  0
   -2.5981    1.5000    0.0000 C   0  0
   -2.5981    3.0007    0.0000 N   0  0
   -1.3003    3.7529    0.0000 C   0  0
   -1.3026    5.2529    0.0000 C   0  0
   -2.6029    6.0009    0.0000 N   0  0
   -2.6053    7.5009    0.0000 C   0  0
   -3.9007    5.2488    0.0000 C   0  0
   -3.8983    3.7488    0.0000 C   0  0
   -3.8971    0.7500    0.0000 C   0  0
   -3.8971   -0.7500    0.0000 C   0  0
   -2.5981   -1.5000    0.0000 N   0  0
   -1.2990   -0.7500    0.0000 C   0  0
    0.0000   -1.5000    0.0000 C   0  0
    1.2935   -3.7495    0.0000 N   0  0
   -1.3093   -5.2389    0.0000 C   0  0
   -2.6121   -5.9823    0.0000 C   0  0
   -2.6197   -7.4823    0.0000 C   0  0
   -3.7390   -8.4796    0.0000 N   0  0
   -3.1358   -9.8530    0.0000 N   0  0
   -3.8924  -11.1483    0.0000 C   0  0
  1  2  1  0
  2  3  1  0
  2  4  1  0
  4  5  2  0
  5  6  1  0
  6  7  2  0
  7  8  1  0
  8  9  2  0
  9 10  1  0
 10 11  2  0
 11 12  1  0
 12 13  1  0
 13 14  1  0
 14 15  2  0
 15 16  1  0
 16 17  2  0
 17 18  1  0
 18 19  1  0
 19 20  1  0
 20 21  1  0
 21 22  1  0
 22 23  1  0
 22 24  1  0
 24 25  1  0
 25 19  1  0
 18 26  2  0
 26 27  1  0
 27 28  2  0
 28 29  1  0
 29 17  1  0
 29 30  2  0
 30 14  1  0
 12 31  2  0
 31  8  1  0
  7 32  1  0
 32 33  2  0
 33 34  1  0
 34  5  1  0
 34 35  2  0
 35 36  1  0
 36  4  1  0
 36 37  1  0
M  END
> <assay_chembl_id>
CHEMBL4830453

> <assay_description>
Antiproliferative activity against human 22Rv1 cells assessed as cell growth inhibition after 72 hrs by CTG assay

> <document_journal>
J Med Chem

> <molecule_chembl_id>
CHEMBL4856177

> <standard_value>
245

> <IC50_uM>
0.245

> <Activity>
Yes

> <Canonical_Smiles>
CC(C)c1c2cc(-c3ccnc(Nc4ccc5c(N6CCN(C)CC6)ccnc5c4)n3)ccc2nn1C

$$$$

  SciTegic03142313312D

 42 46  0  0  1  0            999 V2000
    5.3417    1.2261    0.0000 C   0  0
    4.0974    2.0638    0.0000 C   0  0
    4.2013    3.5602    0.0000 O   0  0
    2.7493    1.4044    0.0000 O   0  0
    2.6454   -0.0929    0.0000 C   0  0
    1.2990   -0.7500    0.0000 C   0  0  2  0  0  0
    1.2990    0.7500    0.0000 C   0  0
    0.0000    1.5000    0.0000 C   0  0
   -1.2990    0.7500    0.0000 C   0  0  1  0  0  0
   -1.2990   -0.7500    0.0000 C   0  0  1  0  0  0
   -2.5981   -1.5000    0.0000 C   0  0
   -3.8971   -0.7500    0.0000 C   0  0
   -3.8971    0.7500    0.0000 C   0  0
   -5.1962    1.5000    0.0000 C   0  0  1  0  0  0
   -6.4944    0.7469    0.0000 O   0  0
   -6.4922   -0.7539    0.0000 C   0  0
   -5.1919   -1.5017    0.0000 C   0  0
   -7.7897   -1.5066    0.0000 O   0  0
   -5.1962    3.0000    0.0000 C   0  0
   -3.8971    3.7500    0.0000 C   0  0
   -2.5981    3.0000    0.0000 C   0  0
   -1.2991    3.7500    0.0000 O   0  0
   -2.5981    1.5000    0.0000 C   0  0  2  0  0  0
   -1.2990    2.2500    0.0000 C   0  0
    0.0000   -1.5000    0.0000 C   0  0  1  0  0  0
   -1.2146   -2.3802    0.0000 O   0  0
    0.3061   -2.9572    0.0000 C   0  0
    1.7979   -3.1140    0.0000 C   0  0
    2.4080   -1.7437    0.0000 C   0  0  2  0  0  0
    2.7008   -0.7875    0.0000 O   0  0
    3.3870   -2.8636    0.0000 C   0  0  1  0  0  0
    4.3923   -3.9769    0.0000 C   0  0
    4.8538   -2.5499    0.0000 O   0  0
    2.9255   -4.2918    0.0000 C   0  0  3  0  0  0
    3.9310   -5.4049    0.0000 C   0  0
    3.4698   -6.8322    0.0000 C   0  0
    4.4753   -7.9453    0.0000 C   0  0
    2.0030   -7.1464    0.0000 C   0  0
    1.5418   -8.5738    0.0000 C   0  0
    0.9976   -6.0333    0.0000 C   0  0
   -0.4692   -6.3476    0.0000 O   0  0
    1.4588   -4.6060    0.0000 O   0  0
  1  2  1  0
  2  3  2  0
  2  4  1  0
  4  5  1  0
  6  5  1  1
  6  7  1  0
  7  8  1  0
  9  8  1  1
  9 10  1  0
 10 11  1  6
 11 12  1  0
 12 13  2  0
 13 14  1  0
 14 15  1  1
 15 16  1  0
 16 17  1  0
 16 18  2  0
 14 19  1  0
 19 20  2  0
 20 21  1  0
 21 22  2  0
 21 23  1  0
 23 13  1  0
 23  9  1  0
 23 24  1  1
 10 25  1  0
 25  6  1  0
 25 26  1  6
 25 27  1  0
 27 28  1  0
 28 29  1  0
 29  6  1  0
 29 30  1  1
 29 31  1  0
 31 32  1  6
 31 33  1  0
 31 34  1  0
 34 35  1  4
 35 36  1  0
 36 37  1  0
 36 38  2  0
 38 39  1  0
 38 40  1  0
 40 41  2  0
 40 42  1  0
 42 34  1  0
M  END
> <assay_chembl_id>
CHEMBL4842239

> <assay_description>
Antiproliferative activity against human 22Rv1 cells assessed as inhibition of cell proliferation incubated for 72 hrs by MTT assay

> <document_journal>
J Nat Prod

> <molecule_chembl_id>
CHEMBL4850712

> <standard_value>
130

> <IC50_uM>
0.13

> <Activity>
Yes

> <Canonical_Smiles>
CC(=O)OC[C@]12CC[C@H]3[C@@H](CC=C4[C@@H](OC(C)=O)C=CC(=O)[C@@]43C)[C@]1(O)CC[C@@]2(O)[C@@](C)(O)C1CC(C)=C(C)C(=O)O1

$$$$

  SciTegic03142313312D

 39 44  0  0  1  0            999 V2000
    2.4750    6.4159    0.0000 C   0  0
    1.1689    5.6782    0.0000 C   0  0
   -0.1227    6.4410    0.0000 O   0  0
    1.1551    4.1775    0.0000 O   0  0
    2.4474    3.4143    0.0000 C   0  0
    2.4328    1.9143    0.0000 C   0  0  2  0  0  0
    1.1965    2.5923    0.0000 C   0  0
    0.0000    1.9143    0.0000 C   0  0
    0.0000    0.4786    0.0000 C   0  0  1  0  0  0
    1.1965    0.0000    0.0000 C   0  0  1  0  0  0
    1.1965   -1.7149    0.0000 C   0  0
    0.0000   -2.4328    0.0000 C   0  0  2  0  0  0
   -1.2762   -3.1507    0.0000 O   0  0
   -1.2762   -1.7149    0.0000 C   0  0  1  0  0  0
   -2.5126   -2.4328    0.0000 C   0  0
   -3.7888   -1.7149    0.0000 C   0  0
   -3.7888    0.0000    0.0000 C   0  0
   -2.5126    0.4786    0.0000 C   0  0
   -2.5047    1.9786    0.0000 O   0  0
   -1.2762    0.0000    0.0000 C   0  0  2  0  0  0
   -1.2683    1.5000    0.0000 C   0  0
    2.4328    0.4786    0.0000 C   0  0  1  0  0  0
    2.7082   -0.9959    0.0000 O   0  0
    4.9853    0.4786    0.0000 C   0  0
    4.9853    1.9143    0.0000 C   0  0
    3.7489    2.5923    0.0000 C   0  0  2  0  0  0
    2.8757    3.0797    0.0000 O   0  0
    5.0579    3.2788    0.0000 C   0  0  1  0  0  0
    6.3663    4.0122    0.0000 C   0  0
    5.0771    4.7787    0.0000 O   0  0
    6.3481    2.5121    0.0000 C   0  0  3  0  0  0
    6.3293    1.0123    0.0000 C   0  0
    7.6189    0.2461    0.0000 C   0  0
    7.6001   -1.2538    0.0000 C   0  0
    8.9272    0.9797    0.0000 C   0  0
   10.2167    0.2135    0.0000 C   0  0
    8.9460    2.4796    0.0000 C   0  0
   10.2543    3.2133    0.0000 O   0  0
    7.6564    3.2458    0.0000 O   0  0
  1  2  1  0
  2  3  2  0
  2  4  1  0
  4  5  1  0
  6  5  1  1
  6  7  1  0
  7  8  1  0
  9  8  1  1
  9 10  1  0
 10 11  1  6
 12 11  1  6
 12 13  1  0
 14 13  1  6
 14 12  1  0
 14 15  1  0
 15 16  1  0
 16 17  2  0
 17 18  1  0
 18 19  2  0
 18 20  1  0
 20  9  1  0
 20 14  1  0
 20 21  1  1
 10 22  1  0
 22  6  1  0
 22 23  1  6
 22 24  1  0
 24 25  1  0
 25 26  1  0
 26  6  1  0
 26 27  1  1
 26 28  1  0
 28 29  1  6
 28 30  1  0
 28 31  1  0
 31 32  1  4
 32 33  1  0
 33 34  1  0
 33 35  2  0
 35 36  1  0
 35 37  1  0
 37 38  2  0
 37 39  1  0
 39 31  1  0
M  END
> <assay_chembl_id>
CHEMBL4842239

> <assay_description>
Antiproliferative activity against human 22Rv1 cells assessed as inhibition of cell proliferation incubated for 72 hrs by MTT assay

> <document_journal>
J Nat Prod

> <molecule_chembl_id>
CHEMBL4869731

> <standard_value>
580

> <IC50_uM>
0.58

> <Activity>
Yes

> <Canonical_Smiles>
CC(=O)OC[C@]12CC[C@H]3[C@@H](C[C@@H]4O[C@@]45CC=CC(=O)[C@]35C)[C@]1(O)CC[C@@]2(O)[C@@](C)(O)C1CC(C)=C(C)C(=O)O1

$$$$

  SciTegic03142313312D

 43 48  0  0  1  0            999 V2000
    2.4750    6.4159    0.0000 C   0  0
    1.1689    5.6782    0.0000 C   0  0
   -0.1227    6.4410    0.0000 O   0  0
    1.1551    4.1775    0.0000 O   0  0
    2.4474    3.4143    0.0000 C   0  0
    2.4328    1.9143    0.0000 C   0  0  2  0  0  0
    1.1965    2.5923    0.0000 C   0  0
    0.0000    1.9143    0.0000 C   0  0
    0.0000    0.4786    0.0000 C   0  0  1  0  0  0
    1.1965    0.0000    0.0000 C   0  0  1  0  0  0
    1.1965   -1.7149    0.0000 C   0  0
    0.0000   -2.4328    0.0000 C   0  0  1  0  0  0
   -1.2762   -3.1507    0.0000 O   0  0
   -1.2762   -1.7149    0.0000 C   0  0  2  0  0  0
   -2.5126   -2.4328    0.0000 C   0  0  2  0  0  0
   -2.4894   -3.9341    0.0000 O   0  0
   -1.1786   -4.6650    0.0000 C   0  0
    0.1089   -3.8953    0.0000 C   0  0
   -1.1552   -6.1648    0.0000 O   0  0
   -3.7888   -1.7149    0.0000 C   0  0
   -3.7888    0.0000    0.0000 C   0  0
   -2.5126    0.4786    0.0000 C   0  0
   -2.5047    1.9786    0.0000 O   0  0
   -1.2762    0.0000    0.0000 C   0  0  2  0  0  0
   -1.2683    1.5000    0.0000 C   0  0
    2.4328    0.4786    0.0000 C   0  0  1  0  0  0
    2.7082   -0.9959    0.0000 O   0  0
    4.9853    0.4786    0.0000 C   0  0
    4.9853    1.9143    0.0000 C   0  0
    3.7489    2.5923    0.0000 C   0  0  2  0  0  0
    2.8757    3.0797    0.0000 O   0  0
    5.0579    3.2788    0.0000 C   0  0  1  0  0  0
    6.3663    4.0122    0.0000 C   0  0
    5.0771    4.7787    0.0000 O   0  0
    6.3481    2.5121    0.0000 C   0  0  3  0  0  0
    6.3293    1.0123    0.0000 C   0  0
    7.6189    0.2461    0.0000 C   0  0
    7.6001   -1.2538    0.0000 C   0  0
    8.9272    0.9797    0.0000 C   0  0
   10.2167    0.2135    0.0000 C   0  0
    8.9460    2.4796    0.0000 C   0  0
   10.2543    3.2133    0.0000 O   0  0
    7.6564    3.2458    0.0000 O   0  0
  1  2  1  0
  2  3  2  0
  2  4  1  0
  4  5  1  0
  6  5  1  1
  6  7  1  0
  7  8  1  0
  9  8  1  1
  9 10  1  0
 10 11  1  6
 12 11  1  1
 12 13  1  0
 14 13  1  1
 14 12  1  0
 14 15  1  0
 15 16  1  6
 16 17  1  0
 17 18  1  0
 17 19  2  0
 15 20  1  0
 20 21  2  0
 21 22  1  0
 22 23  2  0
 22 24  1  0
 24  9  1  0
 24 14  1  0
 24 25  1  1
 10 26  1  0
 26  6  1  0
 26 27  1  6
 26 28  1  0
 28 29  1  0
 29 30  1  0
 30  6  1  0
 30 31  1  1
 30 32  1  0
 32 33  1  6
 32 34  1  0
 32 35  1  0
 35 36  1  4
 36 37  1  0
 37 38  1  0
 37 39  2  0
 39 40  1  0
 39 41  1  0
 41 42  2  0
 41 43  1  0
 43 35  1  0
M  END
> <assay_chembl_id>
CHEMBL4842239

> <assay_description>
Antiproliferative activity against human 22Rv1 cells assessed as inhibition of cell proliferation incubated for 72 hrs by MTT assay

> <document_journal>
J Nat Prod

> <molecule_chembl_id>
CHEMBL4866108

> <standard_value>
210

> <IC50_uM>
0.21

> <Activity>
Yes

> <Canonical_Smiles>
CC(=O)OC[C@]12CC[C@H]3[C@@H](C[C@H]4O[C@]45[C@H](OC(C)=O)C=CC(=O)[C@]35C)[C@]1(O)CC[C@@]2(O)[C@@](C)(O)C1CC(C)=C(C)C(=O)O1

$$$$

  SciTegic03142313312D

 40 45  0  0  1  0            999 V2000
    2.4750    6.4159    0.0000 C   0  0
    1.1689    5.6782    0.0000 C   0  0
   -0.1227    6.4410    0.0000 O   0  0
    1.1551    4.1775    0.0000 O   0  0
    2.4474    3.4143    0.0000 C   0  0
    2.4328    1.9143    0.0000 C   0  0  2  0  0  0
    1.1965    2.5923    0.0000 C   0  0
    0.0000    1.9143    0.0000 C   0  0
    0.0000    0.4786    0.0000 C   0  0  1  0  0  0
    1.1965    0.0000    0.0000 C   0  0  1  0  0  0
    1.1965   -1.7149    0.0000 C   0  0
    0.0000   -2.4328    0.0000 C   0  0  1  0  0  0
   -1.2762   -3.1507    0.0000 O   0  0
   -1.2762   -1.7149    0.0000 C   0  0  2  0  0  0
   -2.5126   -2.4328    0.0000 C   0  0  2  0  0  0
   -2.5023   -3.9328    0.0000 O   0  0
   -3.7888   -1.7149    0.0000 C   0  0
   -3.7888    0.0000    0.0000 C   0  0
   -2.5126    0.4786    0.0000 C   0  0
   -2.5047    1.9786    0.0000 O   0  0
   -1.2762    0.0000    0.0000 C   0  0  2  0  0  0
   -1.2683    1.5000    0.0000 C   0  0
    2.4328    0.4786    0.0000 C   0  0  1  0  0  0
    2.7082   -0.9959    0.0000 O   0  0
    4.9853    0.4786    0.0000 C   0  0
    4.9853    1.9143    0.0000 C   0  0
    3.7489    2.5923    0.0000 C   0  0  2  0  0  0
    2.8757    3.0797    0.0000 O   0  0
    5.0579    3.2788    0.0000 C   0  0  1  0  0  0
    6.3663    4.0122    0.0000 C   0  0
    5.0771    4.7787    0.0000 O   0  0
    6.3481    2.5121    0.0000 C   0  0  3  0  0  0
    6.3293    1.0123    0.0000 C   0  0
    7.6189    0.2461    0.0000 C   0  0
    7.6001   -1.2538    0.0000 C   0  0
    8.9272    0.9797    0.0000 C   0  0
   10.2167    0.2135    0.0000 C   0  0
    8.9460    2.4796    0.0000 C   0  0
   10.2543    3.2133    0.0000 O   0  0
    7.6564    3.2458    0.0000 O   0  0
  1  2  1  0
  2  3  2  0
  2  4  1  0
  4  5  1  0
  6  5  1  1
  6  7  1  0
  7  8  1  0
  9  8  1  1
  9 10  1  0
 10 11  1  6
 12 11  1  1
 12 13  1  0
 14 13  1  1
 14 12  1  0
 14 15  1  0
 15 16  1  6
 15 17  1  0
 17 18  2  0
 18 19  1  0
 19 20  2  0
 19 21  1  0
 21  9  1  0
 21 14  1  0
 21 22  1  1
 10 23  1  0
 23  6  1  0
 23 24  1  6
 23 25  1  0
 25 26  1  0
 26 27  1  0
 27  6  1  0
 27 28  1  1
 27 29  1  0
 29 30  1  6
 29 31  1  0
 29 32  1  0
 32 33  1  4
 33 34  1  0
 34 35  1  0
 34 36  2  0
 36 37  1  0
 36 38  1  0
 38 39  2  0
 38 40  1  0
 40 32  1  0
M  END
> <assay_chembl_id>
CHEMBL4842239

> <assay_description>
Antiproliferative activity against human 22Rv1 cells assessed as inhibition of cell proliferation incubated for 72 hrs by MTT assay

> <document_journal>
J Nat Prod

> <molecule_chembl_id>
CHEMBL4852624

> <standard_value>
330

> <IC50_uM>
0.33

> <Activity>
Yes

> <Canonical_Smiles>
CC(=O)OC[C@]12CC[C@H]3[C@@H](C[C@H]4O[C@]45[C@H](O)C=CC(=O)[C@]35C)[C@]1(O)CC[C@@]2(O)[C@@](C)(O)C1CC(C)=C(C)C(=O)O1

$$$$

  SciTegic03142313312D

 39 43  0  0  1  0            999 V2000
    5.3417    1.2261    0.0000 C   0  0
    4.0974    2.0638    0.0000 C   0  0
    4.2013    3.5602    0.0000 O   0  0
    2.7493    1.4044    0.0000 O   0  0
    2.6454   -0.0929    0.0000 C   0  0
    1.2990   -0.7500    0.0000 C   0  0  2  0  0  0
    1.2990    0.7500    0.0000 C   0  0
    0.0000    1.5000    0.0000 C   0  0
   -1.2990    0.7500    0.0000 C   0  0  1  0  0  0
   -1.2990   -0.7500    0.0000 C   0  0  1  0  0  0
   -2.5981   -1.5000    0.0000 C   0  0
   -3.8971   -0.7500    0.0000 C   0  0
   -5.1961   -1.5000    0.0000 O   0  0
   -3.8971    0.7500    0.0000 C   0  0
   -5.1962    1.5000    0.0000 C   0  0
   -5.1962    3.0000    0.0000 C   0  0
   -3.8971    3.7500    0.0000 C   0  0
   -2.5981    3.0000    0.0000 C   0  0
   -1.2991    3.7500    0.0000 O   0  0
   -2.5981    1.5000    0.0000 C   0  0  2  0  0  0
   -1.2990    2.2500    0.0000 C   0  0
    0.0000   -1.5000    0.0000 C   0  0  1  0  0  0
   -1.2146   -2.3802    0.0000 O   0  0
    0.3061   -2.9572    0.0000 C   0  0
    1.7979   -3.1140    0.0000 C   0  0
    2.4080   -1.7437    0.0000 C   0  0  2  0  0  0
    2.7008   -0.7875    0.0000 O   0  0
    3.3870   -2.8636    0.0000 C   0  0  1  0  0  0
    4.3923   -3.9769    0.0000 C   0  0
    4.8538   -2.5499    0.0000 O   0  0
    2.9255   -4.2918    0.0000 C   0  0  3  0  0  0
    3.9310   -5.4049    0.0000 C   0  0
    3.4698   -6.8322    0.0000 C   0  0
    4.4753   -7.9453    0.0000 C   0  0
    2.0030   -7.1464    0.0000 C   0  0
    1.5418   -8.5738    0.0000 C   0  0
    0.9976   -6.0333    0.0000 C   0  0
   -0.4692   -6.3476    0.0000 O   0  0
    1.4588   -4.6060    0.0000 O   0  0
  1  2  1  0
  2  3  2  0
  2  4  1  0
  4  5  1  0
  6  5  1  1
  6  7  1  0
  7  8  1  0
  9  8  1  1
  9 10  1  0
 10 11  1  6
 11 12  1  0
 12 13  2  0
 12 14  1  0
 14 15  2  0
 15 16  1  0
 16 17  2  0
 17 18  1  0
 18 19  2  0
 18 20  1  0
 20 14  1  0
 20  9  1  0
 20 21  1  1
 10 22  1  0
 22  6  1  0
 22 23  1  6
 22 24  1  0
 24 25  1  0
 25 26  1  0
 26  6  1  0
 26 27  1  1
 26 28  1  0
 28 29  1  6
 28 30  1  0
 28 31  1  0
 31 32  1  4
 32 33  1  0
 33 34  1  0
 33 35  2  0
 35 36  1  0
 35 37  1  0
 37 38  2  0
 37 39  1  0
 39 31  1  0
M  END
> <assay_chembl_id>
CHEMBL4842239

> <assay_description>
Antiproliferative activity against human 22Rv1 cells assessed as inhibition of cell proliferation incubated for 72 hrs by MTT assay

> <document_journal>
J Nat Prod

> <molecule_chembl_id>
CHEMBL4846705

> <standard_value>
500

> <IC50_uM>
0.5

> <Activity>
Yes

> <Canonical_Smiles>
CC(=O)OC[C@]12CC[C@H]3[C@@H](CC(=O)C4=CC=CC(=O)[C@@]43C)[C@]1(O)CC[C@@]2(O)[C@@](C)(O)C1CC(C)=C(C)C(=O)O1

$$$$

  SciTegic03142313312D

 42 46  0  0  1  0            999 V2000
    5.3417    1.2261    0.0000 C   0  0
    4.0974    2.0638    0.0000 C   0  0
    4.2013    3.5602    0.0000 O   0  0
    2.7493    1.4044    0.0000 O   0  0
    2.6454   -0.0929    0.0000 C   0  0
    1.2990   -0.7500    0.0000 C   0  0  2  0  0  0
    1.2990    0.7500    0.0000 C   0  0
    0.0000    1.5000    0.0000 C   0  0
   -1.2990    0.7500    0.0000 C   0  0  1  0  0  0
   -1.2990   -0.7500    0.0000 C   0  0  1  0  0  0
   -2.5981   -1.5000    0.0000 C   0  0
   -3.8971   -0.7500    0.0000 C   0  0  1  0  0  0
   -5.1953   -1.5031    0.0000 O   0  0
   -5.1932   -3.0039    0.0000 C   0  0
   -3.8928   -3.7517    0.0000 C   0  0
   -6.4907   -3.7566    0.0000 O   0  0
   -3.8971    0.7500    0.0000 C   0  0
   -5.1962    1.5000    0.0000 C   0  0
   -5.1962    3.0000    0.0000 C   0  0
   -3.8971    3.7500    0.0000 C   0  0
   -2.5981    3.0000    0.0000 C   0  0
   -1.2991    3.7500    0.0000 O   0  0
   -2.5981    1.5000    0.0000 C   0  0  2  0  0  0
   -1.2990    2.2500    0.0000 C   0  0
    0.0000   -1.5000    0.0000 C   0  0  1  0  0  0
   -1.2146   -2.3802    0.0000 O   0  0
    0.3061   -2.9572    0.0000 C   0  0
    1.7979   -3.1140    0.0000 C   0  0
    2.4080   -1.7437    0.0000 C   0  0  2  0  0  0
    2.7008   -0.7875    0.0000 O   0  0
    3.3870   -2.8636    0.0000 C   0  0  1  0  0  0
    4.3923   -3.9769    0.0000 C   0  0
    4.8538   -2.5499    0.0000 O   0  0
    2.9255   -4.2918    0.0000 C   0  0  3  0  0  0
    3.9310   -5.4049    0.0000 C   0  0
    3.4698   -6.8322    0.0000 C   0  0
    4.4753   -7.9453    0.0000 C   0  0
    2.0030   -7.1464    0.0000 C   0  0
    1.5418   -8.5738    0.0000 C   0  0
    0.9976   -6.0333    0.0000 C   0  0
   -0.4692   -6.3476    0.0000 O   0  0
    1.4588   -4.6060    0.0000 O   0  0
  1  2  1  0
  2  3  2  0
  2  4  1  0
  4  5  1  0
  6  5  1  1
  6  7  1  0
  7  8  1  0
  9  8  1  1
  9 10  1  0
 10 11  1  6
 11 12  1  0
 12 13  1  1
 13 14  1  0
 14 15  1  0
 14 16  2  0
 12 17  1  0
 17 18  2  0
 18 19  1  0
 19 20  2  0
 20 21  1  0
 21 22  2  0
 21 23  1  0
 23 17  1  0
 23  9  1  0
 23 24  1  1
 10 25  1  0
 25  6  1  0
 25 26  1  6
 25 27  1  0
 27 28  1  0
 28 29  1  0
 29  6  1  0
 29 30  1  1
 29 31  1  0
 31 32  1  6
 31 33  1  0
 31 34  1  0
 34 35  1  4
 35 36  1  0
 36 37  1  0
 36 38  2  0
 38 39  1  0
 38 40  1  0
 40 41  2  0
 40 42  1  0
 42 34  1  0
M  END
> <assay_chembl_id>
CHEMBL4842239

> <assay_description>
Antiproliferative activity against human 22Rv1 cells assessed as inhibition of cell proliferation incubated for 72 hrs by MTT assay

> <document_journal>
J Nat Prod

> <molecule_chembl_id>
CHEMBL4874379

> <standard_value>
630

> <IC50_uM>
0.63

> <Activity>
Yes

> <Canonical_Smiles>
CC(=O)OC[C@]12CC[C@H]3[C@@H](C[C@@H](OC(C)=O)C4=CC=CC(=O)[C@@]43C)[C@]1(O)CC[C@@]2(O)[C@@](C)(O)C1CC(C)=C(C)C(=O)O1

$$$$

  SciTegic03142313312D

 38 42  0  0  1  0            999 V2000
    5.3417    1.2261    0.0000 C   0  0
    4.0974    2.0638    0.0000 C   0  0
    4.2013    3.5602    0.0000 O   0  0
    2.7493    1.4044    0.0000 O   0  0
    2.6454   -0.0929    0.0000 C   0  0
    1.2990   -0.7500    0.0000 C   0  0  2  0  0  0
    1.2990    0.7500    0.0000 C   0  0
    0.0000    1.5000    0.0000 C   0  0
   -1.2990    0.7500    0.0000 C   0  0  1  0  0  0
   -1.2990   -0.7500    0.0000 C   0  0  1  0  0  0
   -2.5981   -1.5000    0.0000 C   0  0
   -3.8971   -0.7500    0.0000 C   0  0
   -3.8971    0.7500    0.0000 C   0  0
   -5.1962    1.5000    0.0000 C   0  0
   -5.1962    3.0000    0.0000 C   0  0
   -3.8971    3.7500    0.0000 C   0  0
   -2.5981    3.0000    0.0000 C   0  0
   -1.2991    3.7500    0.0000 O   0  0
   -2.5981    1.5000    0.0000 C   0  0  2  0  0  0
   -1.2990    2.2500    0.0000 C   0  0
    0.0000   -1.5000    0.0000 C   0  0  1  0  0  0
   -1.2146   -2.3802    0.0000 O   0  0
    0.3061   -2.9572    0.0000 C   0  0
    1.7979   -3.1140    0.0000 C   0  0
    2.4080   -1.7437    0.0000 C   0  0  2  0  0  0
    2.7008   -0.7875    0.0000 O   0  0
    3.3870   -2.8636    0.0000 C   0  0  1  0  0  0
    4.3923   -3.9769    0.0000 C   0  0
    4.8538   -2.5499    0.0000 O   0  0
    2.9255   -4.2918    0.0000 C   0  0  3  0  0  0
    3.9310   -5.4049    0.0000 C   0  0
    3.4698   -6.8322    0.0000 C   0  0
    4.4753   -7.9453    0.0000 C   0  0
    2.0030   -7.1464    0.0000 C   0  0
    1.5418   -8.5738    0.0000 C   0  0
    0.9976   -6.0333    0.0000 C   0  0
   -0.4692   -6.3476    0.0000 O   0  0
    1.4588   -4.6060    0.0000 O   0  0
  1  2  1  0
  2  3  2  0
  2  4  1  0
  4  5  1  0
  6  5  1  1
  6  7  1  0
  7  8  1  0
  9  8  1  1
  9 10  1  0
 10 11  1  6
 11 12  1  0
 12 13  2  0
 13 14  1  0
 14 15  2  0
 15 16  1  0
 16 17  1  0
 17 18  2  0
 17 19  1  0
 19 13  1  0
 19  9  1  0
 19 20  1  1
 10 21  1  0
 21  6  1  0
 21 22  1  6
 21 23  1  0
 23 24  1  0
 24 25  1  0
 25  6  1  0
 25 26  1  1
 25 27  1  0
 27 28  1  6
 27 29  1  0
 27 30  1  0
 30 31  1  4
 31 32  1  0
 32 33  1  0
 32 34  2  0
 34 35  1  0
 34 36  1  0
 36 37  2  0
 36 38  1  0
 38 30  1  0
M  END
> <assay_chembl_id>
CHEMBL4842239

> <assay_description>
Antiproliferative activity against human 22Rv1 cells assessed as inhibition of cell proliferation incubated for 72 hrs by MTT assay

> <document_journal>
J Nat Prod

> <molecule_chembl_id>
CHEMBL4862984

> <standard_value>
970

> <IC50_uM>
0.97

> <Activity>
Yes

> <Canonical_Smiles>
CC(=O)OC[C@]12CC[C@H]3[C@@H](CC=C4C=CCC(=O)[C@@]43C)[C@]1(O)CC[C@@]2(O)[C@@](C)(O)C1CC(C)=C(C)C(=O)O1

$$$$

  SciTegic03142313312D

 43 48  0  0  1  0            999 V2000
    2.4750    6.4159    0.0000 C   0  0
    1.1689    5.6782    0.0000 C   0  0
   -0.1227    6.4410    0.0000 O   0  0
    1.1551    4.1775    0.0000 O   0  0
    2.4474    3.4143    0.0000 C   0  0
    2.4328    1.9143    0.0000 C   0  0  2  0  0  0
    1.1965    2.5923    0.0000 C   0  0
    0.0000    1.9143    0.0000 C   0  0
    0.0000    0.4786    0.0000 C   0  0  1  0  0  0
    1.1965    0.0000    0.0000 C   0  0  1  0  0  0
    1.1965   -1.7149    0.0000 C   0  0
    0.0000   -2.4328    0.0000 C   0  0  1  0  0  0
   -1.2762   -3.1507    0.0000 O   0  0
   -1.2762   -1.7149    0.0000 C   0  0  2  0  0  0
   -2.5126   -2.4328    0.0000 C   0  0  1  0  0  0
   -2.4894   -3.9341    0.0000 O   0  0
   -1.1786   -4.6650    0.0000 C   0  0
    0.1089   -3.8953    0.0000 C   0  0
   -1.1552   -6.1648    0.0000 O   0  0
   -3.7888   -1.7149    0.0000 C   0  0
   -3.7888    0.0000    0.0000 C   0  0
   -2.5126    0.4786    0.0000 C   0  0
   -2.5047    1.9786    0.0000 O   0  0
   -1.2762    0.0000    0.0000 C   0  0  2  0  0  0
   -1.2683    1.5000    0.0000 C   0  0
    2.4328    0.4786    0.0000 C   0  0  1  0  0  0
    2.7082   -0.9959    0.0000 O   0  0
    4.9853    0.4786    0.0000 C   0  0
    4.9853    1.9143    0.0000 C   0  0
    3.7489    2.5923    0.0000 C   0  0  2  0  0  0
    2.8757    3.0797    0.0000 O   0  0
    5.0579    3.2788    0.0000 C   0  0  1  0  0  0
    6.3663    4.0122    0.0000 C   0  0
    5.0771    4.7787    0.0000 O   0  0
    6.3481    2.5121    0.0000 C   0  0  3  0  0  0
    6.3293    1.0123    0.0000 C   0  0
    7.6189    0.2461    0.0000 C   0  0
    7.6001   -1.2538    0.0000 C   0  0
    8.9272    0.9797    0.0000 C   0  0
   10.2167    0.2135    0.0000 C   0  0
    8.9460    2.4796    0.0000 C   0  0
   10.2543    3.2133    0.0000 O   0  0
    7.6564    3.2458    0.0000 O   0  0
  1  2  1  0
  2  3  2  0
  2  4  1  0
  4  5  1  0
  6  5  1  1
  6  7  1  0
  7  8  1  0
  9  8  1  1
  9 10  1  0
 10 11  1  6
 12 11  1  1
 12 13  1  0
 14 13  1  1
 14 12  1  0
 14 15  1  0
 15 16  1  1
 16 17  1  0
 17 18  1  0
 17 19  2  0
 15 20  1  0
 20 21  2  0
 21 22  1  0
 22 23  2  0
 22 24  1  0
 24  9  1  0
 24 14  1  0
 24 25  1  1
 10 26  1  0
 26  6  1  0
 26 27  1  6
 26 28  1  0
 28 29  1  0
 29 30  1  0
 30  6  1  0
 30 31  1  1
 30 32  1  0
 32 33  1  6
 32 34  1  0
 32 35  1  0
 35 36  1  4
 36 37  1  0
 37 38  1  0
 37 39  2  0
 39 40  1  0
 39 41  1  0
 41 42  2  0
 41 43  1  0
 43 35  1  0
M  END
> <assay_chembl_id>
CHEMBL4842239

> <assay_description>
Antiproliferative activity against human 22Rv1 cells assessed as inhibition of cell proliferation incubated for 72 hrs by MTT assay

> <document_journal>
J Nat Prod

> <molecule_chembl_id>
CHEMBL4862877

> <standard_value>
250

> <IC50_uM>
0.25

> <Activity>
Yes

> <Canonical_Smiles>
CC(=O)OC[C@]12CC[C@H]3[C@@H](C[C@H]4O[C@]45[C@@H](OC(C)=O)C=CC(=O)[C@]35C)[C@]1(O)CC[C@@]2(O)[C@@](C)(O)C1CC(C)=C(C)C(=O)O1

$$$$

  SciTegic03142313312D

 38 42  0  0  1  0            999 V2000
    5.3417    1.2261    0.0000 C   0  0
    4.0974    2.0638    0.0000 C   0  0
    4.2013    3.5602    0.0000 O   0  0
    2.7493    1.4044    0.0000 O   0  0
    2.6454   -0.0929    0.0000 C   0  0
    1.2990   -0.7500    0.0000 C   0  0  2  0  0  0
    1.2990    0.7500    0.0000 C   0  0
    0.0000    1.5000    0.0000 C   0  0
   -1.2990    0.7500    0.0000 C   0  0  1  0  0  0
   -1.2990   -0.7500    0.0000 C   0  0  1  0  0  0
   -2.5981   -1.5000    0.0000 C   0  0
   -3.8971   -0.7500    0.0000 C   0  0
   -3.8971    0.7500    0.0000 C   0  0
   -5.1962    1.5000    0.0000 C   0  0
   -5.1962    3.0000    0.0000 C   0  0
   -3.8971    3.7500    0.0000 C   0  0
   -2.5981    3.0000    0.0000 C   0  0
   -1.2991    3.7500    0.0000 O   0  0
   -2.5981    1.5000    0.0000 C   0  0  2  0  0  0
   -1.2990    2.2500    0.0000 C   0  0
    0.0000   -1.5000    0.0000 C   0  0  1  0  0  0
   -1.2146   -2.3802    0.0000 O   0  0
    0.3061   -2.9572    0.0000 C   0  0
    1.7979   -3.1140    0.0000 C   0  0
    2.4080   -1.7437    0.0000 C   0  0  2  0  0  0
    2.7008   -0.7875    0.0000 O   0  0
    3.3870   -2.8636    0.0000 C   0  0  1  0  0  0
    4.3923   -3.9769    0.0000 C   0  0
    4.8538   -2.5499    0.0000 O   0  0
    2.9255   -4.2918    0.0000 C   0  0  3  0  0  0
    3.9310   -5.4049    0.0000 C   0  0
    3.4698   -6.8322    0.0000 C   0  0
    4.4753   -7.9453    0.0000 C   0  0
    2.0030   -7.1464    0.0000 C   0  0
    1.5418   -8.5738    0.0000 C   0  0
    0.9976   -6.0333    0.0000 C   0  0
   -0.4692   -6.3476    0.0000 O   0  0
    1.4588   -4.6060    0.0000 O   0  0
  1  2  1  0
  2  3  2  0
  2  4  1  0
  4  5  1  0
  6  5  1  1
  6  7  1  0
  7  8  1  0
  9  8  1  1
  9 10  1  0
 10 11  1  6
 11 12  1  0
 12 13  2  0
 13 14  1  0
 14 15  1  0
 15 16  2  0
 16 17  1  0
 17 18  2  0
 17 19  1  0
 19 13  1  0
 19  9  1  0
 19 20  1  1
 10 21  1  0
 21  6  1  0
 21 22  1  6
 21 23  1  0
 23 24  1  0
 24 25  1  0
 25  6  1  0
 25 26  1  1
 25 27  1  0
 27 28  1  6
 27 29  1  0
 27 30  1  0
 30 31  1  4
 31 32  1  0
 32 33  1  0
 32 34  2  0
 34 35  1  0
 34 36  1  0
 36 37  2  0
 36 38  1  0
 38 30  1  0
M  END
> <assay_chembl_id>
CHEMBL4842239

> <assay_description>
Antiproliferative activity against human 22Rv1 cells assessed as inhibition of cell proliferation incubated for 72 hrs by MTT assay

> <document_journal>
J Nat Prod

> <molecule_chembl_id>
CHEMBL4858112

> <standard_value>
130

> <IC50_uM>
0.13

> <Activity>
Yes

> <Canonical_Smiles>
CC(=O)OC[C@]12CC[C@H]3[C@@H](CC=C4CC=CC(=O)[C@@]43C)[C@]1(O)CC[C@@]2(O)[C@@](C)(O)C1CC(C)=C(C)C(=O)O1

$$$$

  SciTegic03142313312D

 39 43  0  0  1  0            999 V2000
    5.3417    1.2261    0.0000 C   0  0
    4.0974    2.0638    0.0000 C   0  0
    4.2013    3.5602    0.0000 O   0  0
    2.7493    1.4044    0.0000 O   0  0
    2.6454   -0.0929    0.0000 C   0  0
    1.2990   -0.7500    0.0000 C   0  0  2  0  0  0
    1.2990    0.7500    0.0000 C   0  0
    0.0000    1.5000    0.0000 C   0  0
   -1.2990    0.7500    0.0000 C   0  0  1  0  0  0
   -1.2990   -0.7500    0.0000 C   0  0  1  0  0  0
   -2.5981   -1.5000    0.0000 C   0  0
   -3.8971   -0.7500    0.0000 C   0  0
   -3.8971    0.7500    0.0000 C   0  0
   -5.1962    1.5000    0.0000 C   0  0  1  0  0  0
   -6.4952    0.7500    0.0000 O   0  0
   -5.1962    3.0000    0.0000 C   0  0
   -3.8971    3.7500    0.0000 C   0  0
   -2.5981    3.0000    0.0000 C   0  0
   -1.2991    3.7500    0.0000 O   0  0
   -2.5981    1.5000    0.0000 C   0  0  2  0  0  0
   -1.2990    2.2500    0.0000 C   0  0
    0.0000   -1.5000    0.0000 C   0  0  1  0  0  0
   -1.2146   -2.3802    0.0000 O   0  0
    0.3061   -2.9572    0.0000 C   0  0
    1.7979   -3.1140    0.0000 C   0  0
    2.4080   -1.7437    0.0000 C   0  0  2  0  0  0
    2.7008   -0.7875    0.0000 O   0  0
    3.3870   -2.8636    0.0000 C   0  0  1  0  0  0
    4.3923   -3.9769    0.0000 C   0  0
    4.8538   -2.5499    0.0000 O   0  0
    2.9255   -4.2918    0.0000 C   0  0  3  0  0  0
    3.9310   -5.4049    0.0000 C   0  0
    3.4698   -6.8322    0.0000 C   0  0
    4.4753   -7.9453    0.0000 C   0  0
    2.0030   -7.1464    0.0000 C   0  0
    1.5418   -8.5738    0.0000 C   0  0
    0.9976   -6.0333    0.0000 C   0  0
   -0.4692   -6.3476    0.0000 O   0  0
    1.4588   -4.6060    0.0000 O   0  0
  1  2  1  0
  2  3  2  0
  2  4  1  0
  4  5  1  0
  6  5  1  1
  6  7  1  0
  7  8  1  0
  9  8  1  1
  9 10  1  0
 10 11  1  6
 11 12  1  0
 12 13  2  0
 13 14  1  0
 14 15  1  1
 14 16  1  0
 16 17  2  0
 17 18  1  0
 18 19  2  0
 18 20  1  0
 20 13  1  0
 20  9  1  0
 20 21  1  1
 10 22  1  0
 22  6  1  0
 22 23  1  6
 22 24  1  0
 24 25  1  0
 25 26  1  0
 26  6  1  0
 26 27  1  1
 26 28  1  0
 28 29  1  6
 28 30  1  0
 28 31  1  0
 31 32  1  4
 32 33  1  0
 33 34  1  0
 33 35  2  0
 35 36  1  0
 35 37  1  0
 37 38  2  0
 37 39  1  0
 39 31  1  0
M  END
> <assay_chembl_id>
CHEMBL4842239

> <assay_description>
Antiproliferative activity against human 22Rv1 cells assessed as inhibition of cell proliferation incubated for 72 hrs by MTT assay

> <document_journal>
J Nat Prod

> <molecule_chembl_id>
CHEMBL4864487

> <standard_value>
80

> <IC50_uM>
0.08

> <Activity>
Yes

> <Canonical_Smiles>
CC(=O)OC[C@]12CC[C@H]3[C@@H](CC=C4[C@@H](O)C=CC(=O)[C@@]43C)[C@]1(O)CC[C@@]2(O)[C@@](C)(O)C1CC(C)=C(C)C(=O)O1

$$$$

  SciTegic03142313312D

 40 45  0  0  1  0            999 V2000
    2.6787    6.4291    0.0000 C   0  0
    1.3341    5.7642    0.0000 C   0  0
    0.0862    6.5966    0.0000 O   0  0
    1.2380    4.2664    0.0000 O   0  0
    2.4865    3.4336    0.0000 C   0  0
    2.3900    1.9400    0.0000 C   0  0  2  0  0  0
    1.0300    2.6800    0.0000 C   0  0
   -0.2800    1.9100    0.0000 C   0  0
   -0.2800    0.3200    0.0000 C   0  0  1  0  0  0
    1.0700   -0.4400    0.0000 C   0  0  1  0  0  0
    1.0700   -1.9900    0.0000 C   0  0
   -0.2400   -2.7600    0.0000 C   0  0  2  0  0  0
   -0.2351   -4.2600    0.0000 O   0  0
   -1.5700   -1.9900    0.0000 C   0  0  2  0  0  0
   -1.5700   -3.6700    0.0000 O   0  0
   -2.8700   -2.7600    0.0000 C   0  0  1  0  0  0
   -4.2300   -1.9900    0.0000 C   0  0
   -4.2300   -0.4400    0.0000 C   0  0
   -2.9200    0.3200    0.0000 C   0  0
   -2.9297    1.8200    0.0000 O   0  0
   -1.5700   -0.4400    0.0000 C   0  0  2  0  0  0
   -1.5847    1.0599    0.0000 C   0  0
    2.3900    0.3400    0.0000 C   0  0  1  0  0  0
    2.5610   -1.1502    0.0000 O   0  0
    3.8500   -0.1200    0.0000 C   0  0
    4.7500    1.0900    0.0000 C   0  0
    3.8000    2.3700    0.0000 C   0  0  2  0  0  0
    3.1213    3.1044    0.0000 O   0  0
    5.2603    2.6483    0.0000 C   0  0  1  0  0  0
    6.7287    2.9547    0.0000 C   0  0
    5.7294    4.0730    0.0000 O   0  0
    6.2605    1.5294    0.0000 C   0  0  3  0  0  0
    5.7919    0.1044    0.0000 C   0  0
    6.7916   -1.0139    0.0000 C   0  0
    6.3229   -2.4388    0.0000 C   0  0
    8.2599   -0.7073    0.0000 C   0  0
    9.2596   -1.8256    0.0000 C   0  0
    8.7285    0.7177    0.0000 C   0  0
   10.1969    1.0243    0.0000 O   0  0
    7.7289    1.8360    0.0000 O   0  0
  1  2  1  0
  2  3  2  0
  2  4  1  0
  4  5  1  0
  6  5  1  1
  6  7  1  0
  7  8  1  0
  9  8  1  1
  9 10  1  0
 10 11  1  6
 11 12  1  0
 12 13  1  6
 12 14  1  0
 14 15  1  1
 16 15  1  1
 16 14  1  0
 16 17  1  0
 17 18  2  0
 18 19  1  0
 19 20  2  0
 19 21  1  0
 21  9  1  0
 21 14  1  0
 21 22  1  1
 10 23  1  0
 23  6  1  0
 23 24  1  6
 23 25  1  0
 25 26  1  0
 26 27  1  0
 27  6  1  0
 27 28  1  1
 27 29  1  0
 29 30  1  6
 29 31  1  0
 29 32  1  0
 32 33  1  4
 33 34  1  0
 34 35  1  0
 34 36  2  0
 36 37  1  0
 36 38  1  0
 38 39  2  0
 38 40  1  0
 40 32  1  0
M  END
> <assay_chembl_id>
CHEMBL4842239

> <assay_description>
Antiproliferative activity against human 22Rv1 cells assessed as inhibition of cell proliferation incubated for 72 hrs by MTT assay

> <document_journal>
J Nat Prod

> <molecule_chembl_id>
CHEMBL4876149

> <standard_value>
250

> <IC50_uM>
0.25

> <Activity>
Yes

> <Canonical_Smiles>
CC(=O)OC[C@]12CC[C@H]3[C@@H](C[C@H](O)[C@]45O[C@H]4C=CC(=O)[C@]35C)[C@]1(O)CC[C@@]2(O)[C@@](C)(O)C1CC(C)=C(C)C(=O)O1

$$$$
