
  SciTegic03142313312D

 28 31  0  0  1  0            999 V2000
    6.4924   -3.7566    0.0000 C   0  0
    5.1945   -3.0045    0.0000 N   0  0
    3.8943   -3.7525    0.0000 C   0  0
    2.5965   -3.0004    0.0000 C   0  0
    2.5987   -1.5004    0.0000 C   0  0  2  0  0  0
    1.2990   -0.7500    0.0000 C   0  0
    1.2990    0.7500    0.0000 C   0  0
    2.5981    1.5000    0.0000 O   0  0
    0.0000    1.5000    0.0000 C   0  0
   -1.2990    0.7500    0.0000 C   0  0
   -2.5981    1.5000    0.0000 O   0  0
   -1.2990   -0.7500    0.0000 C   0  0
   -2.5981   -1.5000    0.0000 C   0  0
   -3.8971   -0.7500    0.0000 O   0  0
   -2.5981   -3.0000    0.0000 C   0  0
   -1.2990   -3.7500    0.0000 C   0  0
   -1.2990   -5.2508    0.0000 C   0  0
    0.0012   -5.9988    0.0000 C   0  0
    0.0036   -7.4988    0.0000 C   0  0
   -1.2942   -8.2509    0.0000 C   0  0
   -2.5945   -7.5029    0.0000 C   0  0
   -2.5969   -6.0029    0.0000 C   0  0
   -3.8971   -5.2550    0.0000 Cl  0  0
    0.0000   -3.0000    0.0000 O   0  0
    0.0000   -1.5000    0.0000 C   0  0
    3.8991   -0.7525    0.0000 C   0  0  2  0  0  0
    3.9015    0.7475    0.0000 O   0  0
    5.1969   -1.5045    0.0000 C   0  0
  1  2  1  0
  2  3  1  0
  3  4  1  0
  4  5  1  0
  5  6  1  6
  6  7  2  0
  7  8  1  0
  7  9  1  0
  9 10  2  0
 10 11  1  0
 10 12  1  0
 12 13  1  0
 13 14  2  0
 13 15  1  0
 15 16  2  0
 16 17  1  0
 17 18  2  0
 18 19  1  0
 19 20  2  0
 20 21  1  0
 21 22  2  0
 22 17  1  0
 22 23  1  0
 16 24  1  0
 24 25  1  0
 25  6  1  0
 25 12  2  0
  5 26  1  0
 26 27  1  6
 26 28  1  0
 28  2  1  0
M  END
> <assay_chembl_id>
CHEMBL708902

> <assay_description>
Inhibition of LNCaP human prostate carcinoma cell proliferation

> <document_journal>
J Med Chem

> <molecule_chembl_id>
CHEMBL428690

> <standard_value>
16

> <IC50_uM>
0.016

> <Activity>
Yes

> <Canonical_Smiles>
CN1CC[C@H](c2c(O)cc(O)c3c(=O)cc(-c4ccccc4Cl)oc23)[C@H](O)C1

$$$$

  SciTegic03142313312D

 68 73  0  0  1  0            999 V2000
    2.0317   -6.5585    0.0000 C   0  0
    1.4038   -5.1963    0.0000 O   0  0
    2.2700   -3.9700    0.0000 C   0  0  1  0  0  0
    1.8100   -2.8200    0.0000 C   0  0
    0.5400   -3.5100    0.0000 C   0  0
    0.4958   -5.0666    0.0000 C   0  0
   -0.7900   -1.3100    0.0000 C   0  0
    0.0475   -0.0656    0.0000 C   0  0
   -2.3400   -1.9400    0.0000 C   0  0
   -2.4478   -3.4361    0.0000 O   0  0
   -3.7400   -1.1200    0.0000 N   0  0
   -3.7400    0.5000    0.0000 C   0  0
   -5.1700    1.3400    0.0000 C   0  0
   -5.1700    2.9800    0.0000 C   0  0
   -6.4699    3.7285    0.0000 O   0  0
   -3.7400    3.8100    0.0000 C   0  0
   -3.7431    5.3093    0.0000 N   0  0
   -5.0439    6.0578    0.0000 C   0  0
   -5.0470    7.5586    0.0000 C   0  0
   -6.3478    8.3072    0.0000 C   0  0
   -6.3509    9.8080    0.0000 C   0  0
   -6.3540   11.3088    0.0000 C   0  0
   -6.3571   12.8097    0.0000 C   0  0  2  0  0  0
   -7.2251   13.3062    0.0000 O   0  0
   -5.0385   12.1755    0.0000 C   0  0
   -4.0406   13.2954    0.0000 C   0  0
   -4.7949   14.5792    0.0000 C   0  0  1  0  0  0
   -3.3042   14.7455    0.0000 C   0  0
   -4.3388   16.0081    0.0000 C   0  0  3  0  0  0
   -2.8732   16.3276    0.0000 C   0  0
   -2.4171   17.7566    0.0000 C   0  0
   -3.4266   18.8661    0.0000 C   0  0
   -2.9705   20.2951    0.0000 C   0  0
   -3.9799   21.4046    0.0000 C   0  0
   -3.5238   22.8335    0.0000 O   0  0
   -5.4455   21.0851    0.0000 C   0  0
   -5.9016   19.6561    0.0000 C   0  0
   -4.8921   18.5466    0.0000 C   0  0  1  0  0  0
   -5.8692   18.3336    0.0000 C   0  0
   -5.3483   17.1176    0.0000 C   0  0  2  0  0  0
   -5.6523   16.1650    0.0000 C   0  0
   -6.8138   16.7981    0.0000 C   0  0
   -7.2700   15.3692    0.0000 C   0  0
   -6.2605   14.2597    0.0000 C   0  0  2  0  0  0
   -7.2046   13.9301    0.0000 C   0  0
   -2.3100    2.9800    0.0000 C   0  0
   -0.8900    3.8100    0.0000 C   0  0
    0.5200    3.0000    0.0000 C   0  0  2  0  0  0
    1.3855    3.5009    0.0000 C   0  0
    0.5200    1.3700    0.0000 C   0  0
    1.8800    2.0400    0.0000 C   0  0  2  0  0  0
    1.9455    3.5384    0.0000 O   0  0
    3.2759    4.2312    0.0000 C   0  0
    3.2500    1.1100    0.0000 C   0  0  1  0  0  0
    4.5755    1.8122    0.0000 O   0  0
    3.2500   -0.3900    0.0000 C   0  0  2  0  0  0
    2.3656   -1.6016    0.0000 C   0  0
    4.7500    0.0900    0.0000 C   0  0
    5.4200   -0.9000    0.0000 C   0  0
    4.9973   -2.3392    0.0000 C   0  0
    7.1621   -0.1541    0.0000 C   0  0
    3.6100   -3.9700    0.0000 C   0  0  2  0  0  0
    4.4546   -5.2056    0.0000 O   0  0
    5.9514   -5.0951    0.0000 C   0  0
    6.6032   -3.7441    0.0000 N   0  0
    6.7958   -6.3348    0.0000 O   0  0
   -2.3100    1.3200    0.0000 C   0  0
   -1.0121    0.5681    0.0000 O   0  0
  1  2  1  0
  3  2  1  1
  3  4  1  0
  4  5  2  0
  5  6  1  0
  6  7  2  0
  7  8  1  0
  7  9  1  0
  9 10  2  0
  9 11  1  0
 11 12  1  0
 12 13  2  0
 13 14  1  0
 14 15  2  0
 14 16  1  0
 16 17  1  0
 17 18  1  0
 18 19  1  0
 19 20  1  0
 20 21  1  0
 21 22  3  0
 22 23  1  0
 23 24  1  6
 23 25  1  0
 25 26  1  0
 26 27  1  0
 27 28  1  1
 27 29  1  0
 29 30  1  4
 30 31  1  0
 31 32  1  0
 32 33  2  0
 33 34  1  0
 34 35  2  0
 34 36  1  0
 36 37  1  0
 37 38  1  0
 38 32  1  0
 38 39  1  6
 38 40  1  0
 40 29  1  0
 40 41  1  1
 40 42  1  0
 42 43  1  0
 43 44  1  0
 44 27  1  0
 44 23  1  0
 44 45  1  6
 16 46  2  0
 46 47  1  0
 47 48  1  0
 48 49  1  6
 48 50  1  0
 50 51  1  0
 51 52  1  6
 52 53  1  0
 51 54  1  0
 54 55  1  1
 54 56  1  0
 56 57  1  1
 56 58  1  0
 58 59  2  0
 59 60  1  0
 59 61  1  0
 61 62  1  0
 62  3  1  0
 62 63  1  6
 63 64  1  0
 64 65  1  0
 64 66  2  0
 46 67  1  0
 67 12  1  0
 67 68  2  0
M  END
> <assay_chembl_id>
CHEMBL708033

> <assay_description>
Compound was evaluated for cytotoxicity against LNCaP prostate cancer cells

> <document_journal>
Bioorg Med Chem Lett

> <molecule_chembl_id>
CHEMBL267716

> <standard_value>
200

> <IC50_uM>
0.2

> <Activity>
Yes

> <Canonical_Smiles>
CO[C@H]1/C=C\C=C(/C)C(=O)NC2=CC(=O)C(NCCCC#C[C@]3(O)CC[C@@]4(C)C5CCC6=CC(=O)CC[C@]6(C)[C@@]5(C)CC[C@@]43C)=C(C[C@H](C)C[C@H](OC)[C@@H](O)[C@H](C)/C=C(\C)C[C@@H]1OC(N)=O)C2=O

$$$$

  SciTegic03142313312D

 41 42  0  0  1  0            999 V2000
   -5.0432    6.0574    0.0000 C   0  0
   -3.7431    5.3093    0.0000 O   0  0
   -3.7400    3.8100    0.0000 C   0  0
   -2.3100    2.9800    0.0000 C   0  0
   -0.8900    3.8100    0.0000 C   0  0
    0.5200    3.0000    0.0000 C   0  0  2  0  0  0
    1.8182    3.7514    0.0000 C   0  0
    0.5200    1.3700    0.0000 C   0  0
    1.8800    2.0400    0.0000 C   0  0  2  0  0  0
    1.9455    3.5384    0.0000 O   0  0
    0.6805    4.3446    0.0000 C   0  0
    3.2500    1.1100    0.0000 C   0  0  1  0  0  0
    4.5755    1.8122    0.0000 O   0  0
    3.2500   -0.3900    0.0000 C   0  0  2  0  0  0
    2.3656   -1.6016    0.0000 C   0  0
    4.7500    0.0900    0.0000 C   0  0
    5.4200   -0.9000    0.0000 C   0  0
    4.9973   -2.3392    0.0000 C   0  0
    7.1621   -0.1541    0.0000 C   0  0
    3.6100   -3.9700    0.0000 C   0  0  2  0  0  0
    4.4546   -5.2056    0.0000 O   0  0
    5.9514   -5.0951    0.0000 C   0  0
    6.6032   -3.7441    0.0000 N   0  0
    6.7958   -6.3348    0.0000 O   0  0
    2.2700   -3.9700    0.0000 C   0  0  1  0  0  0
    1.4088   -5.1998    0.0000 O   0  0
    2.0414   -6.5599    0.0000 C   0  0
    1.8100   -2.8200    0.0000 C   0  0
    0.5400   -3.5100    0.0000 C   0  0
    0.4958   -5.0666    0.0000 C   0  0
   -0.7900   -1.3100    0.0000 C   0  0
    0.0475   -0.0656    0.0000 C   0  0
   -2.3400   -1.9400    0.0000 C   0  0
   -2.4478   -3.4361    0.0000 O   0  0
   -3.7400   -1.1200    0.0000 N   0  0
   -3.7400    0.5000    0.0000 C   0  0
   -5.1700    1.3400    0.0000 C   0  0
   -5.1700    2.9800    0.0000 C   0  0
   -6.4699    3.7285    0.0000 O   0  0
   -2.3100    1.3200    0.0000 C   0  0
   -1.0121    0.5681    0.0000 O   0  0
  1  2  1  0
  2  3  1  0
  3  4  2  0
  4  5  1  0
  5  6  1  0
  6  7  1  6
  6  8  1  0
  8  9  1  0
  9 10  1  6
 10 11  1  0
  9 12  1  0
 12 13  1  1
 12 14  1  0
 14 15  1  1
 14 16  1  0
 16 17  2  0
 17 18  1  0
 17 19  1  0
 19 20  1  0
 20 21  1  6
 21 22  1  0
 22 23  1  0
 22 24  2  0
 20 25  1  0
 25 26  1  1
 26 27  1  0
 25 28  1  0
 28 29  2  0
 29 30  1  0
 30 31  2  0
 31 32  1  0
 31 33  1  0
 33 34  2  0
 33 35  1  0
 35 36  1  0
 36 37  2  0
 37 38  1  0
 38  3  1  0
 38 39  2  0
 36 40  1  0
 40  4  1  0
 40 41  2  0
M  END
> <assay_chembl_id>
CHEMBL708033

> <assay_description>
Compound was evaluated for cytotoxicity against LNCaP prostate cancer cells

> <document_journal>
Bioorg Med Chem Lett

> <molecule_chembl_id>
CHEMBL25891

> <standard_value>
40

> <IC50_uM>
0.04

> <Activity>
Yes

> <Canonical_Smiles>
COC1=C2C[C@H](C)C[C@H](OC)[C@@H](O)[C@H](C)/C=C(\C)C[C@H](OC(N)=O)[C@@H](OC)/C=C\C=C(/C)C(=O)NC(=CC1=O)C2=O

$$$$

  SciTegic03142313312D

 69 74  0  0  1  0            999 V2000
    2.0317   -6.5585    0.0000 C   0  0
    1.4038   -5.1963    0.0000 O   0  0
    2.2700   -3.9700    0.0000 C   0  0  1  0  0  0
    1.8100   -2.8200    0.0000 C   0  0
    0.5400   -3.5100    0.0000 C   0  0
    0.4958   -5.0666    0.0000 C   0  0
   -0.7900   -1.3100    0.0000 C   0  0
    0.0475   -0.0656    0.0000 C   0  0
   -2.3400   -1.9400    0.0000 C   0  0
   -2.4478   -3.4361    0.0000 O   0  0
   -3.7400   -1.1200    0.0000 N   0  0
   -3.7400    0.5000    0.0000 C   0  0
   -5.1700    1.3400    0.0000 C   0  0
   -5.1700    2.9800    0.0000 C   0  0
   -6.4699    3.7285    0.0000 O   0  0
   -3.7400    3.8100    0.0000 C   0  0
   -3.7431    5.3093    0.0000 N   0  0
   -5.0439    6.0578    0.0000 C   0  0
   -5.0470    7.5586    0.0000 C   0  0
   -6.3478    8.3072    0.0000 C   0  0
   -6.3509    9.8080    0.0000 C   0  0
   -7.6517   10.5566    0.0000 C   0  0
   -8.9525   11.3051    0.0000 C   0  0
  -10.2534   12.0537    0.0000 C   0  0  2  0  0  0
  -11.1177   11.5508    0.0000 O   0  0
   -9.0443   12.8777    0.0000 C   0  0
   -9.5143   14.3022    0.0000 C   0  0
  -11.0033   14.2918    0.0000 C   0  0  1  0  0  0
  -10.4011   15.6656    0.0000 C   0  0
  -12.0121   15.4020    0.0000 C   0  0  3  0  0  0
  -11.5550   16.8306    0.0000 C   0  0
  -12.5638   17.9408    0.0000 C   0  0
  -14.0296   17.6222    0.0000 C   0  0
  -15.0384   18.7323    0.0000 C   0  0
  -16.5041   18.4138    0.0000 C   0  0
  -17.5129   19.5239    0.0000 O   0  0
  -16.9612   16.9851    0.0000 C   0  0
  -15.9524   15.8750    0.0000 C   0  0
  -14.4866   16.1935    0.0000 C   0  0  1  0  0  0
  -14.7913   15.2411    0.0000 C   0  0
  -13.4778   15.0834    0.0000 C   0  0  2  0  0  0
  -12.8053   14.3433    0.0000 C   0  0
  -13.9349   13.6547    0.0000 C   0  0
  -12.9261   12.5446    0.0000 C   0  0
  -11.4603   12.8631    0.0000 C   0  0  2  0  0  0
  -11.6476   11.8808    0.0000 C   0  0
   -2.3100    2.9800    0.0000 C   0  0
   -0.8900    3.8100    0.0000 C   0  0
    0.5200    3.0000    0.0000 C   0  0  2  0  0  0
    1.3855    3.5009    0.0000 C   0  0
    0.5200    1.3700    0.0000 C   0  0
    1.8800    2.0400    0.0000 C   0  0  2  0  0  0
    1.9455    3.5384    0.0000 O   0  0
    3.2759    4.2312    0.0000 C   0  0
    3.2500    1.1100    0.0000 C   0  0  1  0  0  0
    4.5755    1.8122    0.0000 O   0  0
    3.2500   -0.3900    0.0000 C   0  0  2  0  0  0
    2.3656   -1.6016    0.0000 C   0  0
    4.7500    0.0900    0.0000 C   0  0
    5.4200   -0.9000    0.0000 C   0  0
    4.9973   -2.3392    0.0000 C   0  0
    7.1621   -0.1541    0.0000 C   0  0
    3.6100   -3.9700    0.0000 C   0  0  2  0  0  0
    4.4546   -5.2056    0.0000 O   0  0
    5.9514   -5.0951    0.0000 C   0  0
    6.6032   -3.7441    0.0000 N   0  0
    6.7958   -6.3348    0.0000 O   0  0
   -2.3100    1.3200    0.0000 C   0  0
   -1.0121    0.5681    0.0000 O   0  0
  1  2  1  0
  3  2  1  1
  3  4  1  0
  4  5  2  0
  5  6  1  0
  6  7  2  0
  7  8  1  0
  7  9  1  0
  9 10  2  0
  9 11  1  0
 11 12  1  0
 12 13  2  0
 13 14  1  0
 14 15  2  0
 14 16  1  0
 16 17  1  0
 17 18  1  0
 18 19  1  0
 19 20  1  0
 20 21  1  0
 21 22  1  0
 22 23  3  0
 23 24  1  0
 24 25  1  6
 24 26  1  0
 26 27  1  0
 27 28  1  0
 28 29  1  1
 28 30  1  0
 30 31  1  4
 31 32  1  0
 32 33  1  0
 33 34  2  0
 34 35  1  0
 35 36  2  0
 35 37  1  0
 37 38  1  0
 38 39  1  0
 39 33  1  0
 39 40  1  6
 39 41  1  0
 41 30  1  0
 41 42  1  1
 41 43  1  0
 43 44  1  0
 44 45  1  0
 45 28  1  0
 45 24  1  0
 45 46  1  6
 16 47  2  0
 47 48  1  0
 48 49  1  0
 49 50  1  6
 49 51  1  0
 51 52  1  0
 52 53  1  6
 53 54  1  0
 52 55  1  0
 55 56  1  1
 55 57  1  0
 57 58  1  1
 57 59  1  0
 59 60  2  0
 60 61  1  0
 60 62  1  0
 62 63  1  0
 63  3  1  0
 63 64  1  6
 64 65  1  0
 65 66  1  0
 65 67  2  0
 47 68  1  0
 68 12  1  0
 68 69  2  0
M  END
> <assay_chembl_id>
CHEMBL708033

> <assay_description>
Compound was evaluated for cytotoxicity against LNCaP prostate cancer cells

> <document_journal>
Bioorg Med Chem Lett

> <molecule_chembl_id>
CHEMBL263627

> <standard_value>
100

> <IC50_uM>
0.1

> <Activity>
Yes

> <Canonical_Smiles>
CO[C@H]1/C=C\C=C(/C)C(=O)NC2=CC(=O)C(NCCCCC#C[C@]3(O)CC[C@@]4(C)C5CCC6=CC(=O)CC[C@]6(C)[C@@]5(C)CC[C@@]43C)=C(C[C@H](C)C[C@H](OC)[C@@H](O)[C@H](C)/C=C(\C)C[C@@H]1OC(N)=O)C2=O

$$$$

  SciTegic03142313312D

 16 17  0  0  1  0            999 V2000
    2.5981   -1.5000    0.0000 O   0  0
    1.2990   -0.7500    0.0000 C   0  0
    1.2990    0.7500    0.0000 N   0  0
    0.0000    1.5000    0.0000 C   0  0  3  0  0  0
    0.0000    3.0000    0.0000 O   0  0
   -1.2990    0.7500    0.0000 C   0  0
   -2.5981    1.5000    0.0000 F   0  0
   -1.2990   -0.7500    0.0000 C   0  0
    0.0000   -1.5000    0.0000 N   0  0
    0.0000   -3.0008    0.0000 C   0  0  1  0  0  0
   -1.2122   -3.8625    0.0000 C   0  0
   -0.7464   -5.2884    0.0000 C   0  0
    0.7536   -5.2860    0.0000 C   0  0  1  0  0  0
    1.6337   -6.4985    0.0000 C   0  0
    1.0238   -7.8689    0.0000 O   0  0
    1.2149   -3.8587    0.0000 O   0  0
  1  2  2  0
  2  3  1  0
  3  4  1  0
  4  5  1  4
  4  6  1  0
  6  7  1  0
  6  8  2  0
  8  9  1  0
  9  2  1  0
 10  9  1  6
 10 11  1  0
 11 12  2  0
 12 13  1  0
 13 14  1  6
 14 15  1  0
 13 16  1  0
 16 10  1  0
M  END
> <assay_chembl_id>
CHEMBL709608

> <assay_description>
Tested in vitro for anticancer activity against LNCaP cells

> <document_journal>
J Med Chem

> <molecule_chembl_id>
CHEMBL355426

> <standard_value>
67800

> <IC50_uM>
67.8

> <Activity>
No

> <Canonical_Smiles>
O=C1NC(O)C(F)=CN1[C@H]1C=C[C@@H](CO)O1

$$$$

  SciTegic03142313312D

 16 17  0  0  1  0            999 V2000
    2.5981   -1.5000    0.0000 O   0  0
    1.2990   -0.7500    0.0000 C   0  0
    1.2990    0.7500    0.0000 N   0  0
    0.0000    1.5000    0.0000 C   0  0
    0.0000    3.0000    0.0000 O   0  0
   -1.2990    0.7500    0.0000 N   0  0
   -2.5987    1.5004    0.0000 C   0  0  2  0  0  0
   -2.7390    2.9810    0.0000 C   0  0
   -4.2067    3.2905    0.0000 C   0  0
   -4.9546    1.9903    0.0000 C   0  0  1  0  0  0
   -6.4447    1.8344    0.0000 C   0  0
   -7.3266    3.0478    0.0000 O   0  0
   -3.9492    0.8772    0.0000 O   0  0
   -1.2990   -0.7500    0.0000 C   0  0
    0.0000   -1.5000    0.0000 C   0  0
    0.0000   -3.0000    0.0000 F   0  0
  1  2  2  0
  2  3  1  0
  3  4  1  0
  4  5  2  0
  4  6  1  0
  7  6  1  1
  7  8  1  0
  8  9  2  0
  9 10  1  0
 10 11  1  6
 11 12  1  0
 10 13  1  0
 13  7  1  0
  6 14  1  0
 14 15  2  0
 15  2  1  0
 15 16  1  0
M  END
> <assay_chembl_id>
CHEMBL709608

> <assay_description>
Tested in vitro for anticancer activity against LNCaP cells

> <document_journal>
J Med Chem

> <molecule_chembl_id>
CHEMBL2368322

> <standard_value>
85800

> <IC50_uM>
85.8

> <Activity>
No

> <Canonical_Smiles>
O=c1[nH]c(=O)n([C@@H]2C=C[C@@H](CO)O2)cc1F

$$$$

  SciTegic03142313312D

 16 17  0  0  1  0            999 V2000
    2.5981   -1.5000    0.0000 N   0  0
    1.2990   -0.7500    0.0000 C   0  0
    1.2990    0.7500    0.0000 N   0  0
    0.0000    1.5000    0.0000 C   0  0
    0.0000    3.0000    0.0000 O   0  0
   -1.2990    0.7500    0.0000 N   0  0
   -2.5987    1.5004    0.0000 C   0  0  2  0  0  0
   -2.7390    2.9810    0.0000 C   0  0
   -4.2067    3.2905    0.0000 C   0  0
   -4.9546    1.9903    0.0000 C   0  0  2  0  0  0
   -6.4447    1.8344    0.0000 C   0  0
   -7.3266    3.0478    0.0000 O   0  0
   -3.9492    0.8772    0.0000 O   0  0
   -1.2990   -0.7500    0.0000 C   0  0
    0.0000   -1.5000    0.0000 C   0  0
    0.0000   -3.0000    0.0000 F   0  0
  1  2  1  0
  2  3  2  0
  3  4  1  0
  4  5  2  0
  4  6  1  0
  7  6  1  1
  7  8  1  0
  8  9  2  0
  9 10  1  0
 10 11  1  1
 11 12  1  0
 10 13  1  0
 13  7  1  0
  6 14  1  0
 14 15  2  0
 15  2  1  0
 15 16  1  0
M  END
> <assay_chembl_id>
CHEMBL709608

> <assay_description>
Tested in vitro for anticancer activity against LNCaP cells

> <document_journal>
J Med Chem

> <molecule_chembl_id>
CHEMBL38700

> <standard_value>
55200

> <IC50_uM>
55.2

> <Activity>
No

> <Canonical_Smiles>
Nc1nc(=O)n([C@@H]2C=C[C@H](CO)O2)cc1F

$$$$

  SciTegic03142313312D

 16 17  0  0  1  0            999 V2000
    2.5981   -1.5000    0.0000 O   0  0
    1.2990   -0.7500    0.0000 C   0  0
    1.2990    0.7500    0.0000 N   0  0
    0.0000    1.5000    0.0000 C   0  0
    0.0000    3.0000    0.0000 O   0  0
   -1.2990    0.7500    0.0000 N   0  0
   -2.5987    1.5004    0.0000 C   0  0  2  0  0  0
   -2.7390    2.9810    0.0000 C   0  0
   -4.2067    3.2905    0.0000 C   0  0
   -4.9546    1.9903    0.0000 C   0  0  2  0  0  0
   -6.4447    1.8344    0.0000 C   0  0
   -7.3266    3.0478    0.0000 O   0  0
   -3.9492    0.8772    0.0000 O   0  0
   -1.2990   -0.7500    0.0000 C   0  0
    0.0000   -1.5000    0.0000 C   0  0
    0.0000   -3.0000    0.0000 F   0  0
  1  2  2  0
  2  3  1  0
  3  4  1  0
  4  5  2  0
  4  6  1  0
  7  6  1  1
  7  8  1  0
  8  9  2  0
  9 10  1  0
 10 11  1  1
 11 12  1  0
 10 13  1  0
 13  7  1  0
  6 14  1  0
 14 15  2  0
 15  2  1  0
 15 16  1  0
M  END
> <assay_chembl_id>
CHEMBL709608

> <assay_description>
Tested in vitro for anticancer activity against LNCaP cells

> <document_journal>
J Med Chem

> <molecule_chembl_id>
CHEMBL169267

> <standard_value>
57200

> <IC50_uM>
57.2

> <Activity>
No

> <Canonical_Smiles>
O=c1[nH]c(=O)n([C@@H]2C=C[C@H](CO)O2)cc1F

$$$$

  SciTegic03142313312D

 30 31  0  0  1  0            999 V2000
    1.2948   -3.7516    0.0000 N   0  0
    2.5951   -3.0039    0.0000 C   0  0  1  0  0  0
    2.5973   -1.5031    0.0000 C   0  0
    1.2990   -0.7500    0.0000 C   0  0
    1.2990    0.7500    0.0000 C   0  0
    0.0000    1.5000    0.0000 C   0  0
   -1.2990    0.7500    0.0000 C   0  0
   -2.5981    1.5000    0.0000 O   0  0
   -1.2990   -0.7500    0.0000 C   0  0
    0.0000   -1.5000    0.0000 C   0  0
    3.8933   -3.7570    0.0000 C   0  0
    5.1937   -3.0093    0.0000 O   0  0
    3.8912   -5.2578    0.0000 N   0  0
    5.1894   -6.0109    0.0000 C   0  0
    5.1895   -7.5109    0.0000 C   0  0
    6.4885   -8.2610    0.0000 C   0  0
    7.7875   -7.5110    0.0000 C   0  0
    9.0888   -8.2588    0.0000 C   0  0
   10.3875   -7.5065    0.0000 O   0  0
   11.6888   -8.2543    0.0000 C   0  0
   11.6914   -9.7543    0.0000 O   0  0
   12.9875   -7.5020    0.0000 N   0  0
   14.2888   -8.2498    0.0000 C   0  0
   15.5875   -7.4976    0.0000 C   0  0
   16.8880   -8.2449    0.0000 Cl  0  0
   12.9880   -6.0012    0.0000 C   0  0
   14.2875   -5.2504    0.0000 C   0  0
   14.2880   -3.7504    0.0000 Cl  0  0
    7.7876   -6.0110    0.0000 C   0  0
    6.4885   -5.2610    0.0000 C   0  0
  2  1  1  1
  2  3  1  0
  3  4  1  0
  4  5  2  0
  5  6  1  0
  6  7  2  0
  7  8  1  0
  7  9  1  0
  9 10  2  0
 10  4  1  0
  2 11  1  0
 11 12  2  0
 11 13  1  0
 13 14  1  0
 14 15  2  0
 15 16  1  0
 16 17  2  0
 17 18  1  0
 18 19  1  0
 19 20  1  0
 20 21  2  0
 20 22  1  0
 22 23  1  0
 23 24  1  0
 24 25  1  0
 22 26  1  0
 26 27  1  0
 27 28  1  0
 17 29  1  0
 29 30  2  0
 30 14  1  0
M  END
> <assay_chembl_id>
CHEMBL708112

> <assay_description>
The compound was evaluated for cytotoxicity by assessing 3H thymidine uptake in LNCaP cell line

> <document_journal>
Bioorg Med Chem Lett

> <molecule_chembl_id>
CHEMBL60067

> <standard_value>
33000

> <IC50_uM>
33

> <Activity>
No

> <Canonical_Smiles>
N[C@@H](Cc1ccc(O)cc1)C(=O)Nc1ccc(COC(=O)N(CCCl)CCCl)cc1

$$$$

  SciTegic03142313312D

  8  7  0  0  0  0            999 V2000
    3.9000    2.2500    0.0000 C   0  0
    3.9000    0.7500    0.0000 N   0  0
    2.6000    0.0000    0.0000 C   0  0
    1.3000    0.7500    0.0000 C   0  0
    0.0007    0.0004    0.0000 Cl  0  0
    5.2000    0.0000    0.0000 C   0  0
    6.5000    0.7500    0.0000 C   0  0
    7.7992    0.0004    0.0000 Cl  0  0
  1  2  1  0
  2  3  1  0
  3  4  1  0
  4  5  1  0
  2  6  1  0
  6  7  1  0
  7  8  1  0
M  END
> <assay_chembl_id>
CHEMBL708112

> <assay_description>
The compound was evaluated for cytotoxicity by assessing 3H thymidine uptake in LNCaP cell line

> <document_journal>
Bioorg Med Chem Lett

> <molecule_chembl_id>
CHEMBL427

> <standard_value>
64000

> <IC50_uM>
64

> <Activity>
No

> <Canonical_Smiles>
CN(CCCl)CCCl

$$$$

  SciTegic03142313312D

 24 26  0  0  1  0            999 V2000
    2.5951   -3.0031    0.0000 C   0  0
    2.5973   -1.5031    0.0000 O   0  0
    1.2990   -0.7500    0.0000 C   0  0
    1.2990    0.7500    0.0000 C   0  0
    0.0000    1.5000    0.0000 C   0  0
   -1.2990    0.7500    0.0000 C   0  0
   -2.6003    1.4977    0.0000 C   0  0
   -3.8990    0.7455    0.0000 C   0  0
   -5.2003    1.4932    0.0000 N   0  0
   -5.3382    2.9741    0.0000 C   0  0
   -6.8054    3.2859    0.0000 C   0  0
   -7.5554    1.9869    0.0000 C   0  0
   -6.5517    0.8722    0.0000 C   0  0  1  0  0  0
   -6.8550   -0.5950    0.0000 C   0  0
   -8.2794   -1.0677    0.0000 O   0  0
   -8.5831   -2.5375    0.0000 C   0  0
  -10.0076   -3.0103    0.0000 C   0  0
  -10.3133   -4.4788    0.0000 C   0  0
  -11.7379   -4.9484    0.0000 C   0  0
  -12.8569   -3.9494    0.0000 C   0  0
  -12.5512   -2.4809    0.0000 C   0  0
  -11.1266   -2.0113    0.0000 C   0  0
   -1.2990   -0.7500    0.0000 C   0  0
    0.0000   -1.5000    0.0000 C   0  0
  1  2  1  0
  2  3  1  0
  3  4  2  0
  4  5  1  0
  5  6  2  0
  6  7  1  0
  7  8  1  0
  8  9  1  0
  9 10  1  0
 10 11  1  0
 11 12  1  0
 12 13  1  0
 13  9  1  0
 13 14  1  6
 14 15  1  0
 15 16  1  0
 16 17  1  0
 17 18  2  0
 18 19  1  0
 19 20  2  0
 20 21  1  0
 21 22  2  0
 22 17  1  0
  6 23  1  0
 23 24  2  0
 24  3  1  0
M  END
> <assay_chembl_id>
CHEMBL709607

> <assay_description>
Inhibition of cellular proliferation in LNCaP (prostate).

> <document_journal>
Bioorg Med Chem Lett

> <molecule_chembl_id>
CHEMBL123879

> <standard_value>
33000

> <IC50_uM>
33

> <Activity>
No

> <Canonical_Smiles>
COc1ccc(CCN2CCC[C@H]2COCc2ccccc2)cc1

$$$$

  SciTegic03142313312D

 29 32  0  0  1  0            999 V2000
    2.5981   -1.5000    0.0000 Cl  0  0
    1.2990   -0.7500    0.0000 C   0  0
    1.2990    0.7500    0.0000 C   0  0
    0.0000    1.5000    0.0000 C   0  0
   -1.2990    0.7500    0.0000 C   0  0
   -2.6003    1.4977    0.0000 C   0  0  3  0  0  0
   -3.8990    0.7455    0.0000 O   0  0
   -5.2003    1.4932    0.0000 C   0  0
   -6.4990    0.7409    0.0000 C   0  0  2  0  0  0
   -6.6317   -0.7404    0.0000 C   0  0
   -8.0978   -1.0574    0.0000 C   0  0
   -8.8523    0.2390    0.0000 C   0  0
   -7.8525    1.3572    0.0000 N   0  0
   -8.1609    2.8233    0.0000 C   0  0
   -9.5870    3.2911    0.0000 C   0  0
   -9.8959    4.7598    0.0000 C   0  0
  -11.3205    5.2294    0.0000 C   0  0
  -11.6262    6.6979    0.0000 C   0  0
  -10.5073    7.6969    0.0000 C   0  0
   -9.0827    7.2274    0.0000 C   0  0
   -8.7770    5.7589    0.0000 C   0  0
   -2.6030    2.9985    0.0000 C   0  0
   -3.9023    3.7481    0.0000 C   0  0
   -3.9029    5.2481    0.0000 C   0  0
   -2.6041    5.9986    0.0000 C   0  0
   -1.3048    5.2491    0.0000 C   0  0
   -1.3042    3.7491    0.0000 C   0  0
   -1.2990   -0.7500    0.0000 C   0  0
    0.0000   -1.5000    0.0000 C   0  0
  1  2  1  0
  2  3  2  0
  3  4  1  0
  4  5  2  0
  5  6  1  0
  6  7  1  4
  7  8  1  0
  9  8  1  6
  9 10  1  0
 10 11  1  0
 11 12  1  0
 12 13  1  0
 13  9  1  0
 13 14  1  0
 14 15  1  0
 15 16  1  0
 16 17  2  0
 17 18  1  0
 18 19  2  0
 19 20  1  0
 20 21  2  0
 21 16  1  0
  6 22  1  0
 22 23  2  0
 23 24  1  0
 24 25  2  0
 25 26  1  0
 26 27  2  0
 27 22  1  0
  5 28  1  0
 28 29  2  0
 29  2  1  0
M  END
> <assay_chembl_id>
CHEMBL709605

> <assay_description>
Inhibition of calcium influx in LNCaP (prostate).

> <document_journal>
Bioorg Med Chem Lett

> <molecule_chembl_id>
CHEMBL331233

> <standard_value>
30000

> <IC50_uM>
30

> <Activity>
No

> <Canonical_Smiles>
Clc1ccc(C(OC[C@@H]2CCCN2CCc2ccccc2)c2ccccc2)cc1

$$$$

  SciTegic03142313312D

 22 24  0  0  1  0            999 V2000
    6.5271   -5.6548    0.0000 C   0  0
    5.1017   -6.1218    0.0000 N   0  0
    4.6332   -7.5468    0.0000 C   0  0
    3.1332   -7.5416    0.0000 C   0  0
    2.6747   -6.1134    0.0000 C   0  0
    3.8912   -5.2578    0.0000 C   0  0  1  0  0  0
    3.8933   -3.7570    0.0000 C   0  0
    2.5951   -3.0039    0.0000 O   0  0
    2.5973   -1.5031    0.0000 C   0  0  3  0  0  0
    1.2990   -0.7500    0.0000 C   0  0
    1.2990    0.7500    0.0000 C   0  0
    0.0000    1.5000    0.0000 C   0  0
   -1.2990    0.7500    0.0000 C   0  0
   -1.2990   -0.7500    0.0000 C   0  0
    0.0000   -1.5000    0.0000 C   0  0
    3.8982   -0.7550    0.0000 C   0  0
    3.9030    0.7451    0.0000 C   0  0
    5.2044    1.4911    0.0000 C   0  0
    6.5011    0.7370    0.0000 C   0  0
    7.8024    1.4830    0.0000 Cl  0  0
    6.4964   -0.7630    0.0000 C   0  0
    5.1951   -1.5089    0.0000 C   0  0
  1  2  1  0
  2  3  1  0
  3  4  1  0
  4  5  1  0
  5  6  1  0
  6  2  1  0
  6  7  1  1
  7  8  1  0
  9  8  1  4
  9 10  1  0
 10 11  2  0
 11 12  1  0
 12 13  2  0
 13 14  1  0
 14 15  2  0
 15 10  1  0
  9 16  1  0
 16 17  2  0
 17 18  1  0
 18 19  2  0
 19 20  1  0
 19 21  1  0
 21 22  2  0
 22 16  1  0
M  END
> <assay_chembl_id>
CHEMBL709605

> <assay_description>
Inhibition of calcium influx in LNCaP (prostate).

> <document_journal>
Bioorg Med Chem Lett

> <molecule_chembl_id>
CHEMBL122893

> <standard_value>
50000

> <IC50_uM>
50

> <Activity>
No

> <Canonical_Smiles>
CN1CCC[C@H]1COC(c1ccccc1)c1ccc(Cl)cc1

$$$$

  SciTegic03142313312D

 32 35  0  0  1  0            999 V2000
    2.5951   -3.0031    0.0000 C   0  0
    2.5973   -1.5031    0.0000 O   0  0
    1.2990   -0.7500    0.0000 C   0  0
    1.2990    0.7500    0.0000 C   0  0
    0.0000    1.5000    0.0000 C   0  0
   -1.2990    0.7500    0.0000 C   0  0
   -2.6003    1.4977    0.0000 C   0  0
   -3.8990    0.7455    0.0000 C   0  0
   -5.2003    1.4932    0.0000 C   0  0
   -6.4990    0.7409    0.0000 N   0  0
   -6.6317   -0.7404    0.0000 C   0  0
   -8.0978   -1.0574    0.0000 C   0  0
   -8.8523    0.2390    0.0000 C   0  0
   -7.8525    1.3572    0.0000 C   0  0  1  0  0  0
   -8.1609    2.8233    0.0000 C   0  0
   -9.5870    3.2911    0.0000 O   0  0
   -9.8959    4.7598    0.0000 C   0  0  3  0  0  0
  -11.3219    5.2276    0.0000 C   0  0
  -11.6328    6.6950    0.0000 C   0  0
  -13.0590    7.1596    0.0000 C   0  0
  -14.1745    6.1568    0.0000 C   0  0
  -13.8637    4.6893    0.0000 C   0  0
  -12.4375    4.2247    0.0000 C   0  0
   -8.7781    5.7612    0.0000 C   0  0
   -9.0843    7.2297    0.0000 C   0  0
   -7.9657    8.2291    0.0000 C   0  0
   -6.5409    7.7601    0.0000 C   0  0
   -5.4223    8.7596    0.0000 Cl  0  0
   -6.2347    6.2917    0.0000 C   0  0
   -7.3532    5.2923    0.0000 C   0  0
   -1.2990   -0.7500    0.0000 C   0  0
    0.0000   -1.5000    0.0000 C   0  0
  1  2  1  0
  2  3  1  0
  3  4  2  0
  4  5  1  0
  5  6  2  0
  6  7  1  0
  7  8  1  0
  8  9  1  0
  9 10  1  0
 10 11  1  0
 11 12  1  0
 12 13  1  0
 13 14  1  0
 14 10  1  0
 14 15  1  1
 15 16  1  0
 17 16  1  4
 17 18  1  0
 18 19  2  0
 19 20  1  0
 20 21  2  0
 21 22  1  0
 22 23  2  0
 23 18  1  0
 17 24  1  0
 24 25  2  0
 25 26  1  0
 26 27  2  0
 27 28  1  0
 27 29  1  0
 29 30  2  0
 30 24  1  0
  6 31  1  0
 31 32  2  0
 32  3  1  0
M  END
> <assay_chembl_id>
CHEMBL709605

> <assay_description>
Inhibition of calcium influx in LNCaP (prostate).

> <document_journal>
Bioorg Med Chem Lett

> <molecule_chembl_id>
CHEMBL123213

> <standard_value>
30000

> <IC50_uM>
30

> <Activity>
No

> <Canonical_Smiles>
COc1ccc(CCCN2CCC[C@H]2COC(c2ccccc2)c2ccc(Cl)cc2)cc1

$$$$

  SciTegic03142313312D

 30 33  0  0  1  0            999 V2000
    2.5951   -3.0031    0.0000 C   0  0
    2.5973   -1.5031    0.0000 O   0  0
    1.2990   -0.7500    0.0000 C   0  0
    1.2990    0.7500    0.0000 C   0  0
    0.0000    1.5000    0.0000 C   0  0
   -1.2990    0.7500    0.0000 C   0  0
   -2.6003    1.4977    0.0000 C   0  0
   -3.8990    0.7455    0.0000 C   0  0
   -5.2003    1.4932    0.0000 N   0  0
   -5.3382    2.9741    0.0000 C   0  0
   -6.8054    3.2859    0.0000 C   0  0
   -7.5554    1.9869    0.0000 C   0  0
   -6.5517    0.8722    0.0000 C   0  0  1  0  0  0
   -6.8550   -0.5950    0.0000 C   0  0
   -8.2794   -1.0677    0.0000 O   0  0
   -8.5831   -2.5375    0.0000 C   0  0
  -10.0076   -3.0103    0.0000 C   0  0
  -10.3133   -4.4788    0.0000 C   0  0
  -11.7379   -4.9484    0.0000 C   0  0
  -12.8569   -3.9494    0.0000 C   0  0
  -12.5512   -2.4809    0.0000 C   0  0
  -11.1266   -2.0113    0.0000 C   0  0
   -7.4619   -3.5350    0.0000 C   0  0
   -7.7629   -5.0046    0.0000 C   0  0
   -6.6409   -6.0001    0.0000 C   0  0
   -5.2177   -5.5261    0.0000 C   0  0
   -4.9166   -4.0567    0.0000 C   0  0
   -6.0387   -3.0612    0.0000 C   0  0
   -1.2990   -0.7500    0.0000 C   0  0
    0.0000   -1.5000    0.0000 C   0  0
  1  2  1  0
  2  3  1  0
  3  4  2  0
  4  5  1  0
  5  6  2  0
  6  7  1  0
  7  8  1  0
  8  9  1  0
  9 10  1  0
 10 11  1  0
 11 12  1  0
 12 13  1  0
 13  9  1  0
 13 14  1  6
 14 15  1  0
 15 16  1  0
 16 17  1  0
 17 18  2  0
 18 19  1  0
 19 20  2  0
 20 21  1  0
 21 22  2  0
 22 17  1  0
 16 23  1  0
 23 24  2  0
 24 25  1  0
 25 26  2  0
 26 27  1  0
 27 28  2  0
 28 23  1  0
  6 29  1  0
 29 30  2  0
 30  3  1  0
M  END
> <assay_chembl_id>
CHEMBL709605

> <assay_description>
Inhibition of calcium influx in LNCaP (prostate).

> <document_journal>
Bioorg Med Chem Lett

> <molecule_chembl_id>
CHEMBL123718

> <standard_value>
30000

> <IC50_uM>
30

> <Activity>
No

> <Canonical_Smiles>
COc1ccc(CCN2CCC[C@H]2COC(c2ccccc2)c2ccccc2)cc1

$$$$

  SciTegic03142313312D

 30 35  0  0  0  0            999 V2000
    2.5951   -3.0031    0.0000 O   0  0
    2.5973   -1.5031    0.0000 C   0  0
    3.8976   -0.7553    0.0000 O   0  0
    1.2990   -0.7500    0.0000 C   0  0
    1.2990    0.7500    0.0000 C   0  0
    0.0000    1.5000    0.0000 C   0  0
   -1.2990    0.7500    0.0000 C   0  0
   -2.5981    1.5000    0.0000 C   0  0
   -3.8971    0.7500    0.0000 C   0  0
   -5.1968    1.5003    0.0000 C   0  0
   -5.1993    3.0004    0.0000 C   0  0
   -6.4995    3.7483    0.0000 C   0  0
   -7.7974    2.9963    0.0000 C   0  0
   -9.0976    3.7442    0.0000 O   0  0
   -7.7950    1.4963    0.0000 C   0  0
   -9.0935    0.7438    0.0000 C   0  0  3  0  0  0
   -7.4425    0.1216    0.0000 C   0  0
   -8.3318    1.3345    0.0000 C   0  0  3  0  0  0
   -9.7731    0.7903    0.0000 C   0  0
  -11.2618    1.3065    0.0000 C   0  0  3  0  0  0
  -11.2158    2.7942    0.0000 C   0  0
   -9.8195    3.3018    0.0000 C   0  0  3  0  0  0
   -8.3029    2.8158    0.0000 C   0  0
   -9.0248    2.1315    0.0000 C   0  0
  -10.3729    0.2502    0.0000 C   0  0
   -6.4948    0.7483    0.0000 C   0  0
   -3.8971   -0.7500    0.0000 C   0  0
   -2.5981   -1.5000    0.0000 C   0  0
   -1.2990   -0.7500    0.0000 C   0  0
    0.0000   -1.5000    0.0000 C   0  0
  1  2  2  0
  2  3  1  0
  2  4  1  0
  4  5  2  0
  5  6  1  0
  6  7  2  0
  7  8  1  0
  8  9  2  0
  9 10  1  0
 10 11  2  0
 11 12  1  0
 12 13  2  0
 13 14  1  0
 13 15  1  0
 16 15  1  4
 16 17  1  0
 18 17  1  4
 18 19  1  0
 20 19  1  4
 20 21  1  0
 22 21  1  4
 22 23  1  0
 23 18  1  0
 22 24  1  0
 24 16  1  0
 20 25  1  0
 25 16  1  0
 15 26  2  0
 26 10  1  0
  9 27  1  0
 27 28  2  0
 28 29  1  0
 29  7  1  0
 29 30  2  0
 30  4  1  0
M  END
> <assay_chembl_id>
CHEMBL710893

> <assay_description>
Antiproliferative effect of compound on LNcaP cell line expressing wild-type p53

> <document_journal>
J Med Chem

> <molecule_chembl_id>
CHEMBL1180

> <standard_value>
320

> <IC50_uM>
0.32

> <Activity>
Yes

> <Canonical_Smiles>
O=C(O)c1ccc2cc(-c3ccc(O)c(C45CC6CC(CC(C6)C4)C5)c3)ccc2c1

$$$$

  SciTegic03142313312D

 28 32  0  0  0  0            999 V2000
   10.5392   -3.6148    0.0000 O   0  0
    9.4339   -4.6289    0.0000 C   0  0
    9.7600   -6.0930    0.0000 O   0  0
    8.0020   -4.1794    0.0000 C   0  0
    6.8961   -5.1941    0.0000 C   0  0
    5.4642   -4.7446    0.0000 C   0  0
    4.3575   -5.7571    0.0000 C   0  0
    2.9272   -5.3050    0.0000 C   0  0
    2.6036   -3.8402    0.0000 C   0  0
    1.1734   -3.3856    0.0000 C   0  0
    0.0651   -4.3964    0.0000 C   0  0
   -1.3644   -3.9419    0.0000 C   0  0
   -1.6856   -2.4767    0.0000 C   0  0
   -3.1151   -2.0223    0.0000 O   0  0
   -0.5773   -1.4659    0.0000 C   0  0
   -1.3807   -0.1983    0.0000 C   0  0  3  0  0  0
   -1.9960   -1.8861    0.0000 C   0  0
   -0.7725   -1.0114    0.0000 C   0  0  3  0  0  0
   -1.2994    0.4363    0.0000 C   0  0
   -0.7655    1.9188    0.0000 C   0  0  3  0  0  0
    0.7215    1.8550    0.0000 C   0  0
    1.2124    0.4527    0.0000 C   0  0  3  0  0  0
    0.7083   -1.0580    0.0000 C   0  0
    0.0327   -0.3280    0.0000 C   0  0
   -1.8323    1.0426    0.0000 C   0  0
    0.8522   -1.9204    0.0000 C   0  0
    3.7104   -2.8278    0.0000 C   0  0
    5.1406   -3.2799    0.0000 C   0  0
  1  2  2  0
  2  3  1  0
  2  4  1  0
  4  5  2  0
  5  6  1  0
  6  7  2  0
  7  8  1  0
  8  9  2  0
  9 10  1  0
 10 11  2  0
 11 12  1  0
 12 13  2  0
 13 14  1  0
 13 15  1  0
 16 15  1  4
 16 17  1  0
 18 17  1  4
 18 19  1  0
 20 19  1  4
 20 21  1  0
 22 21  1  4
 22 23  1  0
 23 18  1  0
 22 24  1  0
 24 16  1  0
 20 25  1  0
 25 16  1  0
 15 26  2  0
 26 10  1  0
  9 27  1  0
 27 28  2  0
 28  6  1  0
M  END
> <assay_chembl_id>
CHEMBL710893

> <assay_description>
Antiproliferative effect of compound on LNcaP cell line expressing wild-type p53

> <document_journal>
J Med Chem

> <molecule_chembl_id>
CHEMBL442016

> <standard_value>
120

> <IC50_uM>
0.12

> <Activity>
Yes

> <Canonical_Smiles>
O=C(O)/C=C/c1ccc(-c2ccc(O)c(C34CC5CC(CC(C5)C3)C4)c2)cc1

$$$$

  SciTegic03142313312D

 17 18  0  0  1  0            999 V2000
    2.5981   -1.5000    0.0000 O   0  0
    1.2990   -0.7500    0.0000 C   0  0
    1.2990    0.7500    0.0000 N   0  0
    0.0000    1.5000    0.0000 C   0  0
    0.0000    3.0000    0.0000 O   0  0
   -1.2990    0.7500    0.0000 N   0  0
   -2.5987    1.5004    0.0000 C   0  0  1  0  0  0
   -2.7390    2.9810    0.0000 C   0  0
   -4.2067    3.2905    0.0000 C   0  0  2  0  0  0
   -4.8190    4.6599    0.0000 O   0  0
   -4.9546    1.9903    0.0000 C   0  0  1  0  0  0
   -6.4447    1.8344    0.0000 C   0  0
   -7.3266    3.0478    0.0000 O   0  0
   -3.9492    0.8772    0.0000 O   0  0
   -1.2990   -0.7500    0.0000 C   0  0
    0.0000   -1.5000    0.0000 C   0  0
    0.0000   -3.0000    0.0000 F   0  0
  1  2  2  0
  2  3  1  0
  3  4  1  0
  4  5  2  0
  4  6  1  0
  7  6  1  6
  7  8  1  0
  8  9  1  0
  9 10  1  1
  9 11  1  0
 11 12  1  6
 12 13  1  0
 11 14  1  0
 14  7  1  0
  6 15  1  0
 15 16  2  0
 16  2  1  0
 16 17  1  0
M  END
> <assay_chembl_id>
CHEMBL698278

> <assay_description>
Cytotoxic concentration in prostate specific antigen (PSA) producing human LNCaP cells

> <document_journal>
Bioorg Med Chem Lett

> <molecule_chembl_id>
CHEMBL917

> <standard_value>
69.2

> <IC50_uM>
0.0692

> <Activity>
Yes

> <Canonical_Smiles>
O=c1[nH]c(=O)n([C@H]2C[C@H](O)[C@@H](CO)O2)cc1F

$$$$

  SciTegic03142313312D

 87 90  0  0  1  0            999 V2000
   14.2686  -14.2784    0.0000 C   0  0
   12.9698  -15.0288    0.0000 C   0  0
   12.1037  -14.5288    0.0000 C   0  0
   12.9693  -16.5296    0.0000 C   0  0
   11.6698  -17.2804    0.0000 C   0  0  2  0  0  0
   10.3716  -16.5273    0.0000 N   0  0
   10.3737  -15.0265    0.0000 C   0  0
   11.2406  -14.5280    0.0000 O   0  0
    9.0755  -14.2734    0.0000 C   0  0  2  0  0  0
    7.7729  -15.0189    0.0000 C   0  0
    6.4755  -14.2644    0.0000 C   0  0
    5.1729  -15.0099    0.0000 C   0  0
    3.8755  -14.2553    0.0000 C   0  0
    2.5737  -15.0004    0.0000 N   0  0
    9.0776  -12.7726    0.0000 N   0  0
    7.7794  -12.0195    0.0000 C   0  0
    6.4791  -12.7673    0.0000 O   0  0
    7.7815  -10.5187    0.0000 C   0  0  2  0  0  0
    9.0811   -9.7679    0.0000 C   0  0
    9.0815   -8.2679    0.0000 O   0  0
    6.4833   -9.7656    0.0000 N   0  0
    6.4855   -8.2648    0.0000 C   0  0
    7.7858   -7.5171    0.0000 O   0  0
    5.1873   -7.5117    0.0000 C   0  0  2  0  0  0
    3.8847   -8.2572    0.0000 C   0  0
    2.5880   -7.5031    0.0000 O   0  0
    5.1894   -6.0109    0.0000 N   0  0
    3.8912   -5.2578    0.0000 C   0  0
    2.5909   -6.0056    0.0000 O   0  0
    3.8933   -3.7570    0.0000 C   0  0  2  0  0  0
    5.1929   -3.0062    0.0000 C   0  0
    5.1933   -1.5053    0.0000 C   0  0
    6.4053   -0.6434    0.0000 C   0  0
    5.9393    0.7824    0.0000 N   0  0
    4.4393    0.7798    0.0000 C   0  0
    3.9783   -0.6476    0.0000 N   0  0
    2.5951   -3.0039    0.0000 N   0  0
    2.5973   -1.5031    0.0000 C   0  0
    3.4642   -1.0046    0.0000 O   0  0
    1.2990   -0.7500    0.0000 N   0  0
    1.2990    0.7500    0.0000 C   0  0
    0.0000    1.5000    0.0000 C   0  0
   -1.2990    0.7500    0.0000 O   0  0
   -1.2990   -0.7500    0.0000 C   0  0
    0.0000   -1.5000    0.0000 C   0  0
   11.6676  -18.7813    0.0000 C   0  0
   10.3673  -19.5290    0.0000 O   0  0
   12.9658  -19.5343    0.0000 N   0  0
   12.9637  -21.0352    0.0000 C   0  0  1  0  0  0
   11.6611  -21.7806    0.0000 C   0  0
   10.3637  -21.0261    0.0000 C   0  0
    9.0611  -21.7716    0.0000 C   0  0
    9.0559  -23.2716    0.0000 N   0  0
    7.7645  -21.0175    0.0000 O   0  0
   14.2619  -21.7882    0.0000 C   0  0
   15.1288  -21.2898    0.0000 O   0  0
   14.2598  -23.2891    0.0000 N   0  0
   15.5580  -24.0422    0.0000 C   0  0  1  0  0  0
   16.8575  -23.2913    0.0000 C   0  0
   16.8580  -21.7905    0.0000 C   0  0
   18.1568  -21.0401    0.0000 C   0  0
   15.9919  -21.2905    0.0000 C   0  0
   15.5558  -25.5430    0.0000 C   0  0
   14.2555  -26.2907    0.0000 O   0  0
   16.8540  -26.2961    0.0000 N   0  0
   18.1544  -25.5483    0.0000 C   0  0
   16.8519  -27.7969    0.0000 C   0  0  3  0  0  0
   15.5516  -28.5446    0.0000 C   0  0
   18.1501  -28.5500    0.0000 C   0  0
   19.4505  -27.8022    0.0000 O   0  0
   18.1480  -30.0508    0.0000 O   0  0
   19.4462  -30.8039    0.0000 C   0  0
   19.4441  -32.3047    0.0000 C   0  0  3  0  0  0
   18.2275  -33.1603    0.0000 O   0  0
   18.6861  -34.5885    0.0000 C   0  0  3  0  0  0
   17.7998  -35.7995    0.0000 N   0  0
   18.5117  -37.1218    0.0000 C   0  0
   17.7194  -38.3955    0.0000 C   0  0
   18.4263  -39.7185    0.0000 F   0  0
   16.2202  -38.3462    0.0000 C   0  0
   15.4279  -39.6199    0.0000 O   0  0
   15.5133  -37.0232    0.0000 N   0  0
   16.3056  -35.7495    0.0000 C   0  0
   15.5991  -34.4263    0.0000 O   0  0
   20.1861  -34.5937    0.0000 C   0  0
   20.6546  -33.1687    0.0000 C   0  0  3  0  0  0
   22.0800  -32.7017    0.0000 O   0  0
  1  2  1  0
  2  3  1  0
  2  4  1  0
  5  4  1  1
  5  6  1  0
  6  7  1  0
  7  8  2  0
  7  9  1  0
  9 10  1  6
 10 11  1  0
 11 12  1  0
 12 13  1  0
 13 14  1  0
  9 15  1  0
 15 16  1  0
 16 17  2  0
 16 18  1  0
 18 19  1  1
 19 20  1  0
 18 21  1  0
 21 22  1  0
 22 23  2  0
 22 24  1  0
 24 25  1  6
 25 26  1  0
 24 27  1  0
 27 28  1  0
 28 29  2  0
 28 30  1  0
 30 31  1  1
 31 32  1  0
 32 33  2  0
 33 34  1  0
 34 35  1  0
 35 36  2  0
 36 32  1  0
 30 37  1  0
 37 38  1  0
 38 39  2  0
 38 40  1  0
 40 41  1  0
 41 42  1  0
 42 43  1  0
 43 44  1  0
 44 45  1  0
 45 40  1  0
  5 46  1  0
 46 47  2  0
 46 48  1  0
 49 48  1  6
 49 50  1  0
 50 51  1  0
 51 52  1  0
 52 53  1  0
 52 54  2  0
 49 55  1  0
 55 56  2  0
 55 57  1  0
 58 57  1  1
 58 59  1  0
 59 60  1  0
 60 61  1  0
 60 62  1  0
 58 63  1  0
 63 64  2  0
 63 65  1  0
 65 66  1  0
 65 67  1  0
 67 68  1  4
 67 69  1  0
 69 70  2  0
 69 71  1  0
 71 72  1  0
 73 72  1  4
 73 74  1  0
 74 75  1  0
 75 76  1  4
 76 77  1  0
 77 78  2  0
 78 79  1  0
 78 80  1  0
 80 81  2  0
 80 82  1  0
 82 83  1  0
 83 76  1  0
 83 84  2  0
 75 85  1  0
 85 86  1  0
 86 73  1  0
 86 87  1  4
M  END
> <assay_chembl_id>
CHEMBL698278

> <assay_description>
Cytotoxic concentration in prostate specific antigen (PSA) producing human LNCaP cells

> <document_journal>
Bioorg Med Chem Lett

> <molecule_chembl_id>
CHEMBL409971

> <standard_value>
117

> <IC50_uM>
0.117

> <Activity>
Yes

> <Canonical_Smiles>
CC(C)C[C@H](NC(=O)[C@H](CCCCN)NC(=O)[C@H](CO)NC(=O)[C@H](CO)NC(=O)[C@H](Cc1c[nH]cn1)NC(=O)N1CCOCC1)C(=O)N[C@@H](CCC(N)=O)C(=O)N[C@@H](CC(C)C)C(=O)N(C)C(C)C(=O)OCC1OC(n2cc(F)c(=O)[nH]c2=O)CC1O

$$$$

  SciTegic03142313312D

 28 31  0  0  0  0            999 V2000
    3.8983   -0.7459    0.0000 C   0  0
    2.6003   -1.4977    0.0000 O   0  0
    1.2990   -0.7500    0.0000 C   0  0
    1.2990    0.7500    0.0000 C   0  0
    0.0000    1.5000    0.0000 C   0  0
    0.0000    3.0000    0.0000 N   0  0
   -1.2991    3.7500    0.0000 C   0  0
   -1.2991    5.2507    0.0000 N   0  0
   -0.0012    6.0029    0.0000 C   0  0
   -0.0036    7.5029    0.0000 C   0  0
   -1.3039    8.2509    0.0000 N   0  0
   -1.3093    9.7517    0.0000 C   0  0
   -0.0128   10.5060    0.0000 O   0  0
   -2.6114   10.4982    0.0000 C   0  0
   -2.7567   11.9783    0.0000 C   0  0
   -4.2255   12.2827    0.0000 C   0  0
   -4.9689   10.9799    0.0000 C   0  0
   -3.9596    9.8703    0.0000 O   0  0
   -2.6017    7.4988    0.0000 C   0  0
   -2.5993    5.9988    0.0000 C   0  0
   -2.5981    3.0000    0.0000 N   0  0
   -2.5981    1.5000    0.0000 C   0  0
   -3.8971    0.7500    0.0000 N   0  0
   -1.2990    0.7500    0.0000 C   0  0
   -1.2990   -0.7500    0.0000 C   0  0
    0.0000   -1.5000    0.0000 C   0  0
   -0.0031   -3.0008    0.0000 O   0  0
   -1.3032   -3.7490    0.0000 C   0  0
  1  2  1  0
  2  3  1  0
  3  4  2  0
  4  5  1  0
  5  6  2  0
  6  7  1  0
  7  8  1  0
  8  9  1  0
  9 10  1  0
 10 11  1  0
 11 12  1  0
 12 13  2  0
 12 14  1  0
 14 15  2  0
 15 16  1  0
 16 17  2  0
 17 18  1  0
 18 14  1  0
 11 19  1  0
 19 20  1  0
 20  8  1  0
  7 21  2  0
 21 22  1  0
 22 23  1  0
 22 24  2  0
 24  5  1  0
 24 25  1  0
 25 26  2  0
 26  3  1  0
 26 27  1  0
 27 28  1  0
M  END
> <assay_chembl_id>
CHEMBL826439

> <assay_description>
Antiproliferative activity was determined by colorimetric MTS assay in LNCaP cells after 72 hr of incubation with compounds (1-100 uM)

> <document_journal>
J Med Chem

> <molecule_chembl_id>
CHEMBL2

> <standard_value>
67460

> <IC50_uM>
67.46

> <Activity>
No

> <Canonical_Smiles>
COc1cc2nc(N3CCN(C(=O)c4ccco4)CC3)nc(N)c2cc1OC

$$$$

  SciTegic03142313312D

 32 35  0  0  0  0            999 V2000
    3.8983   -0.7459    0.0000 C   0  0
    2.6003   -1.4977    0.0000 O   0  0
    1.2990   -0.7500    0.0000 C   0  0
    1.2990    0.7500    0.0000 C   0  0
    0.0000    1.5000    0.0000 C   0  0
    0.0000    3.0000    0.0000 N   0  0
   -1.2991    3.7500    0.0000 C   0  0
   -1.2991    5.2507    0.0000 N   0  0
   -0.0012    6.0029    0.0000 C   0  0
   -0.0036    7.5029    0.0000 C   0  0
   -1.3039    8.2509    0.0000 N   0  0
   -1.3093    9.7517    0.0000 C   0  0
   -0.0128   10.5060    0.0000 O   0  0
   -2.6114   10.4982    0.0000 C   0  0
   -2.6168   11.9990    0.0000 C   0  0
   -3.9188   12.7455    0.0000 C   0  0
   -3.9243   14.2463    0.0000 C   0  0
   -5.2263   14.9928    0.0000 C   0  0  3  0  0  0
   -5.3717   16.4729    0.0000 C   0  0
   -6.8405   16.7773    0.0000 C   0  0
   -7.5839   15.4745    0.0000 S   0  0
   -6.5746   14.3649    0.0000 S   0  0
   -2.6017    7.4988    0.0000 C   0  0
   -2.5993    5.9988    0.0000 C   0  0
   -2.5981    3.0000    0.0000 N   0  0
   -2.5981    1.5000    0.0000 C   0  0
   -3.8971    0.7500    0.0000 N   0  0
   -1.2990    0.7500    0.0000 C   0  0
   -1.2990   -0.7500    0.0000 C   0  0
    0.0000   -1.5000    0.0000 C   0  0
   -0.0031   -3.0008    0.0000 O   0  0
   -1.3032   -3.7490    0.0000 C   0  0
  1  2  1  0
  2  3  1  0
  3  4  2  0
  4  5  1  0
  5  6  2  0
  6  7  1  0
  7  8  1  0
  8  9  1  0
  9 10  1  0
 10 11  1  0
 11 12  1  0
 12 13  2  0
 12 14  1  0
 14 15  1  0
 15 16  1  0
 16 17  1  0
 18 17  1  4
 18 19  1  0
 19 20  1  0
 20 21  1  0
 21 22  1  0
 22 18  1  0
 11 23  1  0
 23 24  1  0
 24  8  1  0
  7 25  2  0
 25 26  1  0
 26 27  1  0
 26 28  2  0
 28  5  1  0
 28 29  1  0
 29 30  2  0
 30  3  1  0
 30 31  1  0
 31 32  1  0
M  END
> <assay_chembl_id>
CHEMBL827468

> <assay_description>
Antioxidant activity against formation of ROS was determined in t-BuOOH treated LNCaP cells after 24 hr of incubation with compounds (1-100 uM)

> <document_journal>
J Med Chem

> <molecule_chembl_id>
CHEMBL178923

> <standard_value>
83530

> <IC50_uM>
83.53

> <Activity>
No

> <Canonical_Smiles>
COc1cc2nc(N3CCN(C(=O)CCCCC4CCSS4)CC3)nc(N)c2cc1OC

$$$$

  SciTegic03142313312D

 29 32  0  0  0  0            999 V2000
    3.8983   -0.7459    0.0000 C   0  0
    2.6003   -1.4977    0.0000 O   0  0
    1.2990   -0.7500    0.0000 C   0  0
    1.2990    0.7500    0.0000 C   0  0
    0.0000    1.5000    0.0000 C   0  0
    0.0000    3.0000    0.0000 N   0  0
   -1.2991    3.7500    0.0000 C   0  0
   -1.2991    5.2507    0.0000 N   0  0
   -0.0012    6.0029    0.0000 C   0  0
   -0.0036    7.5029    0.0000 C   0  0
   -1.3039    8.2509    0.0000 N   0  0
   -1.3093    9.7517    0.0000 C   0  0
   -0.0128   10.5060    0.0000 O   0  0
   -2.6114   10.4982    0.0000 C   0  0
   -2.6168   11.9990    0.0000 C   0  0  3  0  0  0
   -3.8317   12.8569    0.0000 C   0  0
   -3.3705   14.2842    0.0000 C   0  0
   -1.8705   14.2866    0.0000 S   0  0
   -1.4047   12.8608    0.0000 S   0  0
   -2.6017    7.4988    0.0000 C   0  0
   -2.5993    5.9988    0.0000 C   0  0
   -2.5981    3.0000    0.0000 N   0  0
   -2.5981    1.5000    0.0000 C   0  0
   -3.8971    0.7500    0.0000 N   0  0
   -1.2990    0.7500    0.0000 C   0  0
   -1.2990   -0.7500    0.0000 C   0  0
    0.0000   -1.5000    0.0000 C   0  0
   -0.0031   -3.0008    0.0000 O   0  0
   -1.3032   -3.7490    0.0000 C   0  0
  1  2  1  0
  2  3  1  0
  3  4  2  0
  4  5  1  0
  5  6  2  0
  6  7  1  0
  7  8  1  0
  8  9  1  0
  9 10  1  0
 10 11  1  0
 11 12  1  0
 12 13  2  0
 12 14  1  0
 15 14  1  4
 15 16  1  0
 16 17  1  0
 17 18  1  0
 18 19  1  0
 19 15  1  0
 11 20  1  0
 20 21  1  0
 21  8  1  0
  7 22  2  0
 22 23  1  0
 23 24  1  0
 23 25  2  0
 25  5  1  0
 25 26  1  0
 26 27  2  0
 27  3  1  0
 27 28  1  0
 28 29  1  0
M  END
> <assay_chembl_id>
CHEMBL826439

> <assay_description>
Antiproliferative activity was determined by colorimetric MTS assay in LNCaP cells after 72 hr of incubation with compounds (1-100 uM)

> <document_journal>
J Med Chem

> <molecule_chembl_id>
CHEMBL178673

> <standard_value>
52620

> <IC50_uM>
52.62

> <Activity>
No

> <Canonical_Smiles>
COc1cc2nc(N3CCN(C(=O)CC4CCSS4)CC3)nc(N)c2cc1OC

$$$$

  SciTegic03142313312D

 28 31  0  0  0  0            999 V2000
    3.8983   -0.7459    0.0000 C   0  0
    2.6003   -1.4977    0.0000 O   0  0
    1.2990   -0.7500    0.0000 C   0  0
    1.2990    0.7500    0.0000 C   0  0
    0.0000    1.5000    0.0000 C   0  0
    0.0000    3.0000    0.0000 N   0  0
   -1.2991    3.7500    0.0000 C   0  0
   -1.2991    5.2507    0.0000 N   0  0
   -0.0012    6.0029    0.0000 C   0  0
   -0.0036    7.5029    0.0000 C   0  0
   -1.3039    8.2509    0.0000 N   0  0
   -1.3093    9.7517    0.0000 C   0  0
   -0.0128   10.5060    0.0000 O   0  0
   -2.6114   10.4982    0.0000 C   0  0  3  0  0  0
   -2.7567   11.9783    0.0000 C   0  0
   -4.2255   12.2827    0.0000 C   0  0
   -4.9689   10.9799    0.0000 S   0  0
   -3.9596    9.8703    0.0000 S   0  0
   -2.6017    7.4988    0.0000 C   0  0
   -2.5993    5.9988    0.0000 C   0  0
   -2.5981    3.0000    0.0000 N   0  0
   -2.5981    1.5000    0.0000 C   0  0
   -3.8971    0.7500    0.0000 N   0  0
   -1.2990    0.7500    0.0000 C   0  0
   -1.2990   -0.7500    0.0000 C   0  0
    0.0000   -1.5000    0.0000 C   0  0
   -0.0031   -3.0008    0.0000 O   0  0
   -1.3032   -3.7490    0.0000 C   0  0
  1  2  1  0
  2  3  1  0
  3  4  2  0
  4  5  1  0
  5  6  2  0
  6  7  1  0
  7  8  1  0
  8  9  1  0
  9 10  1  0
 10 11  1  0
 11 12  1  0
 12 13  2  0
 14 12  1  4
 14 15  1  0
 15 16  1  0
 16 17  1  0
 17 18  1  0
 18 14  1  0
 11 19  1  0
 19 20  1  0
 20  8  1  0
  7 21  2  0
 21 22  1  0
 22 23  1  0
 22 24  2  0
 24  5  1  0
 24 25  1  0
 25 26  2  0
 26  3  1  0
 26 27  1  0
 27 28  1  0
M  END
> <assay_chembl_id>
CHEMBL826439

> <assay_description>
Antiproliferative activity was determined by colorimetric MTS assay in LNCaP cells after 72 hr of incubation with compounds (1-100 uM)

> <document_journal>
J Med Chem

> <molecule_chembl_id>
CHEMBL175934

> <standard_value>
49590

> <IC50_uM>
49.59

> <Activity>
No

> <Canonical_Smiles>
COc1cc2nc(N3CCN(C(=O)C4CCSS4)CC3)nc(N)c2cc1OC

$$$$

  SciTegic03142313312D

 12 12  0  0  1  0            999 V2000
    1.5505   -8.7881    0.0000 O   0  0
    2.1626   -7.4186    0.0000 C   0  0
    3.6547   -7.2645    0.0000 O   0  0
    1.2830   -6.2026    0.0000 C   0  0
    1.8954   -4.8324    0.0000 C   0  0
    1.0157   -3.6164    0.0000 C   0  0
    1.6281   -2.2462    0.0000 C   0  0
    0.7500   -1.0323    0.0000 C   0  0  2  0  0  0
    1.2135    0.3943    0.0000 C   0  0
    0.0000    1.2760    0.0000 C   0  0
   -1.2135    0.3943    0.0000 S   0  0
   -0.7500   -1.0323    0.0000 S   0  0
  1  2  2  0
  2  3  1  0
  2  4  1  0
  4  5  1  0
  5  6  1  0
  6  7  1  0
  8  7  1  1
  8  9  1  0
  9 10  1  0
 10 11  1  0
 11 12  1  0
 12  8  1  0
M  END
> <assay_chembl_id>
CHEMBL827468

> <assay_description>
Antioxidant activity against formation of ROS was determined in t-BuOOH treated LNCaP cells after 24 hr of incubation with compounds (1-100 uM)

> <document_journal>
J Med Chem

> <molecule_chembl_id>
CHEMBL134342

> <standard_value>
54860

> <IC50_uM>
54.86

> <Activity>
No

> <Canonical_Smiles>
O=C(O)CCCC[C@@H]1CCSS1

$$$$

  SciTegic03142313312D

 21 20  0  0  1  0            999 V2000
    0.0007    0.0004    0.0000 C   0  0
    1.3000    0.7500    0.0000 C   0  0
    2.6000    0.0000    0.0000 C   0  0
    3.9000    0.7500    0.0000 C   0  0
    5.2000    0.0000    0.0000 C   0  0
    6.5000    0.7500    0.0000 C   0  0
    7.7999    0.0000    0.0000 C   0  0
    9.0999    0.7500    0.0000 C   0  0
   10.3999    0.0000    0.0000 C   0  0
   11.6999    0.7500    0.0000 C   0  0
   12.9999    0.0000    0.0000 N   0  0
   14.2999    0.7500    0.0000 C   0  0
   14.2999    2.2500    0.0000 O   0  0
   15.5999    0.0000    0.0000 C   0  0  2  0  0  0
   15.5999   -1.5000    0.0000 N   0  0
   16.8999    0.7500    0.0000 C   0  0
   18.1999    0.0000    0.0000 O   0  0
   19.4998    0.7500    0.0000 P   0  0
   20.7991    0.0004    0.0000 O   0  0
   19.4998    2.2500    0.0000 O   0  0
   20.7988    1.5002    0.0000 O   0  0
  1  2  1  0
  2  3  1  0
  3  4  1  0
  4  5  1  0
  5  6  1  0
  6  7  1  0
  7  8  1  0
  8  9  1  0
  9 10  1  0
 10 11  1  0
 11 12  1  0
 12 13  2  0
 12 14  1  0
 14 15  1  1
 14 16  1  0
 16 17  1  0
 17 18  1  0
 18 19  2  0
 18 20  1  0
 18 21  1  0
M  END
> <assay_chembl_id>
CHEMBL834395

> <assay_description>
Concentration required to inhibit proliferation of LNCaP prostate cancer cell lines

> <document_journal>
Bioorg Med Chem Lett

> <molecule_chembl_id>
CHEMBL184774

> <standard_value>
44700

> <IC50_uM>
44.7

> <Activity>
No

> <Canonical_Smiles>
CCCCCCCCCCNC(=O)[C@H](N)COP(=O)(O)O

$$$$

  SciTegic03142313312D

 17 16  0  0  1  0            999 V2000
    0.0007    0.0004    0.0000 C   0  0
    1.3000    0.7500    0.0000 C   0  0
    2.6000    0.0000    0.0000 C   0  0
    3.9000    0.7500    0.0000 C   0  0
    5.2000    0.0000    0.0000 C   0  0
    6.5000    0.7500    0.0000 C   0  0
    7.7999    0.0000    0.0000 C   0  0
    9.0999    0.7500    0.0000 C   0  0
   10.3999    0.0000    0.0000 C   0  0
   11.6999    0.7500    0.0000 C   0  0
   12.9999    0.0000    0.0000 N   0  0
   14.2999    0.7500    0.0000 C   0  0
   14.2999    2.2500    0.0000 O   0  0
   15.5999    0.0000    0.0000 C   0  0  2  0  0  0
   15.5999   -1.5000    0.0000 N   0  0
   16.8999    0.7500    0.0000 C   0  0
   18.1991    0.0004    0.0000 O   0  0
  1  2  1  0
  2  3  1  0
  3  4  1  0
  4  5  1  0
  5  6  1  0
  6  7  1  0
  7  8  1  0
  8  9  1  0
  9 10  1  0
 10 11  1  0
 11 12  1  0
 12 13  2  0
 12 14  1  0
 14 15  1  1
 14 16  1  0
 16 17  1  0
M  END
> <assay_chembl_id>
CHEMBL834395

> <assay_description>
Concentration required to inhibit proliferation of LNCaP prostate cancer cell lines

> <document_journal>
Bioorg Med Chem Lett

> <molecule_chembl_id>
CHEMBL1161669

> <standard_value>
31000

> <IC50_uM>
31

> <Activity>
No

> <Canonical_Smiles>
CCCCCCCCCCNC(=O)[C@H](N)CO

$$$$

  SciTegic03142313312D

 31 31  0  0  1  0            999 V2000
   10.3716  -16.5265    0.0000 C   0  0
   10.3737  -15.0265    0.0000 C   0  0
    9.0755  -14.2734    0.0000 C   0  0
    9.0776  -12.7726    0.0000 C   0  0
    7.7794  -12.0195    0.0000 C   0  0
    7.7815  -10.5187    0.0000 C   0  0
    6.4833   -9.7656    0.0000 C   0  0
    6.4855   -8.2648    0.0000 C   0  0
    5.1873   -7.5117    0.0000 N   0  0
    5.1894   -6.0109    0.0000 C   0  0
    6.4897   -5.2632    0.0000 O   0  0
    3.8912   -5.2578    0.0000 C   0  0  2  0  0  0
    3.8933   -3.7570    0.0000 C   0  0
    2.5951   -3.0039    0.0000 O   0  0
    2.5973   -1.5031    0.0000 C   0  0
    1.2990   -0.7500    0.0000 C   0  0
    1.2990    0.7500    0.0000 C   0  0
    0.0000    1.5000    0.0000 C   0  0
   -1.2990    0.7500    0.0000 C   0  0
   -1.2990   -0.7500    0.0000 C   0  0
    0.0000   -1.5000    0.0000 C   0  0
    2.5917   -6.0086    0.0000 N   0  0
    2.5912   -7.5095    0.0000 C   0  0
    3.8902   -8.2595    0.0000 O   0  0
    1.2917   -8.2603    0.0000 C   0  0
    1.2912   -9.7611    0.0000 C   0  0
   -0.0083  -10.5119    0.0000 C   0  0
   -0.0088  -12.0128    0.0000 C   0  0
   -1.3083  -12.7636    0.0000 C   0  0
   -1.3088  -14.2644    0.0000 C   0  0
   -2.6076  -15.0148    0.0000 C   0  0
  1  2  1  0
  2  3  1  0
  3  4  1  0
  4  5  1  0
  5  6  1  0
  6  7  1  0
  7  8  1  0
  8  9  1  0
  9 10  1  0
 10 11  2  0
 10 12  1  0
 12 13  1  1
 13 14  1  0
 14 15  1  0
 15 16  1  0
 16 17  2  0
 17 18  1  0
 18 19  2  0
 19 20  1  0
 20 21  2  0
 21 16  1  0
 12 22  1  0
 22 23  1  0
 23 24  2  0
 23 25  1  0
 25 26  1  0
 26 27  1  0
 27 28  1  0
 28 29  1  0
 29 30  1  0
 30 31  1  0
M  END
> <assay_chembl_id>
CHEMBL834395

> <assay_description>
Concentration required to inhibit proliferation of LNCaP prostate cancer cell lines

> <document_journal>
Bioorg Med Chem Lett

> <molecule_chembl_id>
CHEMBL186844

> <standard_value>
35000

> <IC50_uM>
35

> <Activity>
No

> <Canonical_Smiles>
CCCCCCCCNC(=O)[C@H](COCc1ccccc1)NC(=O)CCCCCCC

$$$$

  SciTegic03142313312D

 26 28  0  0  0  0            999 V2000
    2.5951   -3.0031    0.0000 C   0  0
    2.5973   -1.5031    0.0000 O   0  0
    1.2990   -0.7500    0.0000 C   0  0
    1.2990    0.7500    0.0000 C   0  0
    0.0000    1.5000    0.0000 C   0  0
   -1.2990    0.7500    0.0000 C   0  0
   -2.5973    1.5031    0.0000 N   0  0
   -2.5951    3.0039    0.0000 C   0  0
   -1.2948    3.7516    0.0000 O   0  0
   -3.8933    3.7570    0.0000 C   0  0
   -3.8912    5.2578    0.0000 N   0  0
   -5.1017    6.1218    0.0000 C   0  0
   -6.5272    5.6548    0.0000 O   0  0
   -4.6332    7.5468    0.0000 C   0  0
   -3.1333    7.5416    0.0000 S   0  0
   -2.6747    6.1134    0.0000 C   0  0  3  0  0  0
   -1.2518    5.6362    0.0000 C   0  0
   -0.8403    4.1992    0.0000 C   0  0
    0.6152    3.8367    0.0000 C   0  0
    1.6569    4.9160    0.0000 C   0  0
    1.2431    6.3578    0.0000 C   0  0
   -0.2124    6.7203    0.0000 C   0  0
   -1.2990   -0.7500    0.0000 C   0  0
   -2.5972   -1.5031    0.0000 O   0  0
   -2.5951   -3.0031    0.0000 C   0  0
    0.0000   -1.5000    0.0000 C   0  0
  1  2  1  0
  2  3  1  0
  3  4  2  0
  4  5  1  0
  5  6  2  0
  6  7  1  0
  7  8  1  0
  8  9  2  0
  8 10  1  0
 10 11  1  0
 11 12  1  0
 12 13  2  0
 12 14  1  0
 14 15  1  0
 15 16  1  0
 16 11  1  0
 16 17  1  4
 17 18  2  0
 18 19  1  0
 19 20  2  0
 20 21  1  0
 21 22  2  0
 22 17  1  0
  6 23  1  0
 23 24  1  0
 24 25  1  0
 23 26  2  0
 26  3  1  0
M  END
> <assay_chembl_id>
CHEMBL827469

> <assay_description>
Antiproliferative activity was evaluated against human prostate LNCaP cancer cell lines using the sulforhodamine B (STB) assay

> <document_journal>
Bioorg Med Chem Lett

> <molecule_chembl_id>
CHEMBL364876

> <standard_value>
82500

> <IC50_uM>
82.5

> <Activity>
No

> <Canonical_Smiles>
COc1ccc(NC(=O)CN2C(=O)CSC2c2ccccc2)c(OC)c1

$$$$

  SciTegic03142313312D

 26 29  0  0  0  0            999 V2000
    3.8964    0.7545    0.0000 O   0  0
    3.8990   -0.7455    0.0000 C   0  0
    5.2003   -1.4932    0.0000 C   0  0
    6.4990   -0.7409    0.0000 N   0  0
    7.8525   -1.3573    0.0000 C   0  0
    8.1608   -2.8252    0.0000 O   0  0
    8.8523   -0.2391    0.0000 C   0  0
    8.0978    1.0574    0.0000 S   0  0
    6.6317    0.7404    0.0000 C   0  0  3  0  0  0
    5.5070    1.7340    0.0000 C   0  0
    4.0568    1.3719    0.0000 C   0  0
    3.0151    2.4512    0.0000 C   0  0
    3.4289    3.8930    0.0000 C   0  0
    4.8844    4.2555    0.0000 C   0  0
    5.9262    3.1762    0.0000 C   0  0
    2.6003   -1.4977    0.0000 N   0  0
    1.2990   -0.7500    0.0000 C   0  0
    1.2990    0.7500    0.0000 C   0  0
    0.0000    1.5000    0.0000 C   0  0
   -1.2990    0.7500    0.0000 C   0  0
   -1.2990   -0.7500    0.0000 C   0  0
   -2.5981   -1.5000    0.0000 C   0  0
   -2.5981   -3.0000    0.0000 C   0  0
   -1.2990   -3.7500    0.0000 C   0  0
    0.0000   -3.0000    0.0000 C   0  0
    0.0000   -1.5000    0.0000 C   0  0
  1  2  2  0
  2  3  1  0
  3  4  1  0
  4  5  1  0
  5  6  2  0
  5  7  1  0
  7  8  1  0
  8  9  1  0
  9  4  1  0
  9 10  1  4
 10 11  2  0
 11 12  1  0
 12 13  2  0
 13 14  1  0
 14 15  2  0
 15 10  1  0
  2 16  1  0
 16 17  1  0
 17 18  2  0
 18 19  1  0
 19 20  2  0
 20 21  1  0
 21 22  2  0
 22 23  1  0
 23 24  2  0
 24 25  1  0
 25 26  2  0
 26 17  1  0
 26 21  1  0
M  END
> <assay_chembl_id>
CHEMBL827469

> <assay_description>
Antiproliferative activity was evaluated against human prostate LNCaP cancer cell lines using the sulforhodamine B (STB) assay

> <document_journal>
Bioorg Med Chem Lett

> <molecule_chembl_id>
CHEMBL184760

> <standard_value>
31400

> <IC50_uM>
31.4

> <Activity>
No

> <Canonical_Smiles>
O=C(CN1C(=O)CSC1c1ccccc1)Nc1cccc2ccccc12

$$$$

  SciTegic03142313312D

 24 26  0  0  0  0            999 V2000
    1.7049    1.1075    0.0000 O   0  0
    3.1277    1.5822    0.0000 C   0  0
    4.2506    0.5865    0.0000 C   0  0
    3.9511   -0.8815    0.0000 N   0  0
    4.9531   -1.9978    0.0000 C   0  0
    6.4451   -1.8434    0.0000 O   0  0
    4.2010   -3.2956    0.0000 C   0  0
    2.7343   -2.9815    0.0000 S   0  0
    2.5987   -1.5004    0.0000 C   0  0  3  0  0  0
    1.2990   -0.7500    0.0000 C   0  0
    1.2990    0.7500    0.0000 C   0  0
    0.0000    1.5000    0.0000 C   0  0
   -1.2990    0.7500    0.0000 C   0  0
   -1.2990   -0.7500    0.0000 C   0  0
    0.0000   -1.5000    0.0000 C   0  0
    3.4277    3.0528    0.0000 N   0  0
    2.3048    4.0485    0.0000 C   0  0
    2.6025    5.5187    0.0000 C   0  0
    1.4782    6.5117    0.0000 C   0  0
    1.7760    7.9818    0.0000 F   0  0
    0.0561    6.0345    0.0000 C   0  0
   -0.2416    4.5643    0.0000 C   0  0
   -1.6637    4.0871    0.0000 F   0  0
    0.8827    3.5714    0.0000 C   0  0
  1  2  2  0
  2  3  1  0
  3  4  1  0
  4  5  1  0
  5  6  2  0
  5  7  1  0
  7  8  1  0
  8  9  1  0
  9  4  1  0
  9 10  1  4
 10 11  2  0
 11 12  1  0
 12 13  2  0
 13 14  1  0
 14 15  2  0
 15 10  1  0
  2 16  1  0
 16 17  1  0
 17 18  2  0
 18 19  1  0
 19 20  1  0
 19 21  2  0
 21 22  1  0
 22 23  1  0
 22 24  2  0
 24 17  1  0
M  END
> <assay_chembl_id>
CHEMBL827469

> <assay_description>
Antiproliferative activity was evaluated against human prostate LNCaP cancer cell lines using the sulforhodamine B (STB) assay

> <document_journal>
Bioorg Med Chem Lett

> <molecule_chembl_id>
CHEMBL362116

> <standard_value>
24100

> <IC50_uM>
24.1

> <Activity>
No

> <Canonical_Smiles>
O=C(CN1C(=O)CSC1c1ccccc1)Nc1cc(F)cc(F)c1

$$$$

  SciTegic03142313312D

 38 39  0  0  1  0            999 V2000
    1.3963  -29.1408    0.0000 C   0  0
    2.2816  -27.9299    0.0000 C   0  0
    1.6762  -26.5566    0.0000 C   0  0
    2.5620  -25.3451    0.0000 C   0  0
    1.9566  -23.9718    0.0000 C   0  0
    2.8425  -22.7603    0.0000 C   0  0
    2.2370  -21.3870    0.0000 C   0  0
    3.1229  -20.1755    0.0000 C   0  0
    2.5175  -18.8022    0.0000 C   0  0
    3.4033  -17.5907    0.0000 C   0  0
    2.7979  -16.2174    0.0000 C   0  0
    3.6837  -15.0058    0.0000 C   0  0
    3.0783  -13.6325    0.0000 C   0  0
    3.9641  -12.4210    0.0000 C   0  0
    3.3587  -11.0477    0.0000 C   0  0
    4.2445   -9.8362    0.0000 C   0  0
    3.6391   -8.4629    0.0000 C   0  0
    4.5250   -7.2514    0.0000 C   0  0
    3.9195   -5.8781    0.0000 N   0  0
    4.8054   -4.6666    0.0000 C   0  0
    6.2966   -4.8284    0.0000 O   0  0
    4.2010   -3.2956    0.0000 C   0  0  2  0  0  0
    4.9531   -1.9978    0.0000 C   0  0
    3.9511   -0.8815    0.0000 S   0  0
    2.5987   -1.5004    0.0000 C   0  0  3  0  0  0
    1.2990   -0.7500    0.0000 C   0  0
    1.2990    0.7500    0.0000 C   0  0
    0.0000    1.5000    0.0000 C   0  0
    0.0031    3.0008    0.0000 O   0  0
    1.3032    3.7490    0.0000 C   0  0
   -1.2990    0.7500    0.0000 C   0  0
   -2.6003    1.4977    0.0000 O   0  0
   -3.8983    0.7459    0.0000 C   0  0
   -1.2990   -0.7500    0.0000 C   0  0
   -2.5972   -1.5031    0.0000 O   0  0
   -2.5951   -3.0031    0.0000 C   0  0
    0.0000   -1.5000    0.0000 C   0  0
    2.7343   -2.9815    0.0000 N   0  0
  1  2  1  0
  2  3  1  0
  3  4  1  0
  4  5  1  0
  5  6  1  0
  6  7  1  0
  7  8  1  0
  8  9  1  0
  9 10  1  0
 10 11  1  0
 11 12  1  0
 12 13  1  0
 13 14  1  0
 14 15  1  0
 15 16  1  0
 16 17  1  0
 17 18  1  0
 18 19  1  0
 19 20  1  0
 20 21  2  0
 22 20  1  1
 22 23  1  0
 23 24  1  0
 24 25  1  0
 25 26  1  4
 26 27  2  0
 27 28  1  0
 28 29  1  0
 29 30  1  0
 28 31  2  0
 31 32  1  0
 32 33  1  0
 31 34  1  0
 34 35  1  0
 35 36  1  0
 34 37  2  0
 37 26  1  0
 25 38  1  0
 38 22  1  0
M  END
> <assay_chembl_id>
CHEMBL834114

> <assay_description>
Antiproliferative activity against human prostate cancer LNCaP cell line by sulforhodamine B assay

> <document_journal>
Bioorg Med Chem Lett

> <molecule_chembl_id>
CHEMBL188399

> <standard_value>
820

> <IC50_uM>
0.82

> <Activity>
Yes

> <Canonical_Smiles>
CCCCCCCCCCCCCCCCCCNC(=O)[C@@H]1CSC(c2cc(OC)c(OC)c(OC)c2)N1

$$$$

  SciTegic03142313312D

 36 37  0  0  1  0            999 V2000
    1.3963  -29.1408    0.0000 C   0  0
    2.2816  -27.9299    0.0000 C   0  0
    1.6762  -26.5566    0.0000 C   0  0
    2.5620  -25.3451    0.0000 C   0  0
    1.9566  -23.9718    0.0000 C   0  0
    2.8425  -22.7603    0.0000 C   0  0
    2.2370  -21.3870    0.0000 C   0  0
    3.1229  -20.1755    0.0000 C   0  0
    2.5175  -18.8022    0.0000 C   0  0
    3.4033  -17.5907    0.0000 C   0  0
    2.7979  -16.2174    0.0000 C   0  0
    3.6837  -15.0058    0.0000 C   0  0
    3.0783  -13.6325    0.0000 C   0  0
    3.9641  -12.4210    0.0000 C   0  0
    3.3587  -11.0477    0.0000 C   0  0
    4.2445   -9.8362    0.0000 C   0  0
    3.6391   -8.4629    0.0000 C   0  0
    4.5250   -7.2514    0.0000 C   0  0
    3.9195   -5.8781    0.0000 N   0  0
    4.8054   -4.6666    0.0000 C   0  0
    6.2966   -4.8284    0.0000 O   0  0
    4.2010   -3.2956    0.0000 C   0  0  1  0  0  0
    4.9531   -1.9978    0.0000 C   0  0
    3.9511   -0.8815    0.0000 S   0  0
    2.5987   -1.5004    0.0000 C   0  0  3  0  0  0
    1.2990   -0.7500    0.0000 C   0  0
    1.2990    0.7500    0.0000 C   0  0
    0.0000    1.5000    0.0000 C   0  0
   -1.2990    0.7500    0.0000 C   0  0
   -2.5973    1.5031    0.0000 O   0  0
   -2.5951    3.0031    0.0000 C   0  0
   -1.2990   -0.7500    0.0000 C   0  0
   -2.5972   -1.5031    0.0000 O   0  0
   -2.5951   -3.0031    0.0000 C   0  0
    0.0000   -1.5000    0.0000 C   0  0
    2.7343   -2.9815    0.0000 N   0  0
  1  2  1  0
  2  3  1  0
  3  4  1  0
  4  5  1  0
  5  6  1  0
  6  7  1  0
  7  8  1  0
  8  9  1  0
  9 10  1  0
 10 11  1  0
 11 12  1  0
 12 13  1  0
 13 14  1  0
 14 15  1  0
 15 16  1  0
 16 17  1  0
 17 18  1  0
 18 19  1  0
 19 20  1  0
 20 21  2  0
 22 20  1  6
 22 23  1  0
 23 24  1  0
 24 25  1  0
 25 26  1  4
 26 27  2  0
 27 28  1  0
 28 29  2  0
 29 30  1  0
 30 31  1  0
 29 32  1  0
 32 33  1  0
 33 34  1  0
 32 35  2  0
 35 26  1  0
 25 36  1  0
 36 22  1  0
M  END
> <assay_chembl_id>
CHEMBL825132

> <assay_description>
Antiproliferative activity against prostate cancer LNCaP Cell line using sulforhodamine B(SRB) assay

> <document_journal>
J Med Chem

> <molecule_chembl_id>
CHEMBL540876

> <standard_value>
850

> <IC50_uM>
0.85

> <Activity>
Yes

> <RemovedSalts>
HCl

> <Canonical_Smiles>
CCCCCCCCCCCCCCCCCCNC(=O)[C@H]1CSC(c2ccc(OC)c(OC)c2)N1.Cl

$$$$

  SciTegic03142313312D

 38 39  0  0  1  0            999 V2000
    1.3963  -29.1408    0.0000 C   0  0
    2.2816  -27.9299    0.0000 C   0  0
    1.6762  -26.5566    0.0000 C   0  0
    2.5620  -25.3451    0.0000 C   0  0
    1.9566  -23.9718    0.0000 C   0  0
    2.8425  -22.7603    0.0000 C   0  0
    2.2370  -21.3870    0.0000 C   0  0
    3.1229  -20.1755    0.0000 C   0  0
    2.5175  -18.8022    0.0000 C   0  0
    3.4033  -17.5907    0.0000 C   0  0
    2.7979  -16.2174    0.0000 C   0  0
    3.6837  -15.0058    0.0000 C   0  0
    3.0783  -13.6325    0.0000 C   0  0
    3.9641  -12.4210    0.0000 C   0  0
    3.3587  -11.0477    0.0000 C   0  0
    4.2445   -9.8362    0.0000 C   0  0
    3.6391   -8.4629    0.0000 C   0  0
    4.5250   -7.2514    0.0000 C   0  0
    3.9195   -5.8781    0.0000 N   0  0
    4.8054   -4.6666    0.0000 C   0  0
    6.2966   -4.8284    0.0000 O   0  0
    4.2010   -3.2956    0.0000 C   0  0  1  0  0  0
    4.9531   -1.9978    0.0000 C   0  0
    3.9511   -0.8815    0.0000 S   0  0
    2.5987   -1.5004    0.0000 C   0  0  3  0  0  0
    1.2990   -0.7500    0.0000 C   0  0
    1.2990    0.7500    0.0000 C   0  0
    0.0000    1.5000    0.0000 C   0  0
    0.0031    3.0008    0.0000 O   0  0
    1.3032    3.7490    0.0000 C   0  0
   -1.2990    0.7500    0.0000 C   0  0
   -2.6003    1.4977    0.0000 O   0  0
   -3.8983    0.7459    0.0000 C   0  0
   -1.2990   -0.7500    0.0000 C   0  0
   -2.5972   -1.5031    0.0000 O   0  0
   -2.5951   -3.0031    0.0000 C   0  0
    0.0000   -1.5000    0.0000 C   0  0
    2.7343   -2.9815    0.0000 N   0  0
  1  2  1  0
  2  3  1  0
  3  4  1  0
  4  5  1  0
  5  6  1  0
  6  7  1  0
  7  8  1  0
  8  9  1  0
  9 10  1  0
 10 11  1  0
 11 12  1  0
 12 13  1  0
 13 14  1  0
 14 15  1  0
 15 16  1  0
 16 17  1  0
 17 18  1  0
 18 19  1  0
 19 20  1  0
 20 21  2  0
 22 20  1  6
 22 23  1  0
 23 24  1  0
 24 25  1  0
 25 26  1  4
 26 27  2  0
 27 28  1  0
 28 29  1  0
 29 30  1  0
 28 31  2  0
 31 32  1  0
 32 33  1  0
 31 34  1  0
 34 35  1  0
 35 36  1  0
 34 37  2  0
 37 26  1  0
 25 38  1  0
 38 22  1  0
M  END
> <assay_chembl_id>
CHEMBL825132

> <assay_description>
Antiproliferative activity against prostate cancer LNCaP Cell line using sulforhodamine B(SRB) assay

> <document_journal>
J Med Chem

> <molecule_chembl_id>
CHEMBL556756

> <standard_value>
820

> <IC50_uM>
0.82

> <Activity>
Yes

> <RemovedSalts>
HCl

> <Canonical_Smiles>
CCCCCCCCCCCCCCCCCCNC(=O)[C@H]1CSC(c2cc(OC)c(OC)c(OC)c2)N1.Cl

$$$$

  SciTegic03142313312D

 62 68  0  0  1  0            999 V2000
   -2.5378  -11.6641    0.0000 C   0  0
   -4.0148  -11.9258    0.0000 C   0  0
   -4.5262  -13.3359    0.0000 O   0  0
   -4.9801  -10.7766    0.0000 O   0  0
   -4.9817   -9.2754    0.0000 C   0  0  1  0  0  0
   -3.7152  -10.0114    0.0000 C   0  0
   -2.4168   -9.2604    0.0000 O   0  0
   -3.7088  -11.4849    0.0000 C   0  0  1  0  0  0
   -2.4103  -10.7339    0.0000 C   0  0
   -4.9652  -12.2088    0.0000 C   0  0  2  0  0  0
   -6.2367  -11.4641    0.0000 C   0  0  2  0  0  0
   -7.5385  -12.2118    0.0000 O   0  0
   -9.0161  -11.9490    0.0000 C   0  0
   -9.5265  -10.5385    0.0000 O   0  0
   -9.9833  -13.0966    0.0000 C   0  0
  -11.4605  -12.8361    0.0000 C   0  0
  -12.4248  -13.9850    0.0000 C   0  0
  -11.9119  -15.3946    0.0000 C   0  0
  -10.4347  -15.6553    0.0000 C   0  0
   -9.4704  -14.5063    0.0000 C   0  0
   -6.2382   -9.9992    0.0000 C   0  0  2  0  0  0
   -7.5379  -10.7480    0.0000 O   0  0
   -7.5047   -9.2632    0.0000 C   0  0
   -7.5111   -7.7897    0.0000 C   0  0  2  0  0  0
   -8.8107   -7.0384    0.0000 O   0  0
   -8.8110   -5.5375    0.0000 C   0  0
   -7.5118   -4.7877    0.0000 O   0  0
  -10.1104   -4.7865    0.0000 C   0  0  2  0  0  0
  -11.4095   -5.5363    0.0000 O   0  0
  -10.1106   -3.2857    0.0000 C   0  0  1  0  0  0
  -11.4100   -2.5347    0.0000 N   0  0
  -11.4103   -1.0339    0.0000 C   0  0
  -10.1111   -0.2840    0.0000 O   0  0
  -12.7097   -0.2828    0.0000 C   0  0
  -14.0107   -1.0295    0.0000 C   0  0
  -15.3078   -0.2763    0.0000 C   0  0
  -15.3041    1.2237    0.0000 C   0  0
  -14.0032    1.9705    0.0000 C   0  0
  -12.7060    1.2172    0.0000 C   0  0
   -8.8108   -2.5355    0.0000 C   0  0
   -8.8085   -1.0354    0.0000 C   0  0
   -7.5083   -0.2874    0.0000 C   0  0
   -6.2104   -1.0394    0.0000 C   0  0
   -6.2126   -2.5394    0.0000 C   0  0
   -7.5128   -3.2874    0.0000 C   0  0
   -6.2547   -7.0658    0.0000 C   0  0
   -6.2493   -5.5658    0.0000 C   0  0
   -4.9832   -7.8105    0.0000 C   0  0
   -7.8612   -9.8263    0.0000 C   0  0
   -8.2894  -11.2639    0.0000 C   0  0
   -8.9317   -8.7756    0.0000 C   0  0
   -4.9638  -13.6736    0.0000 C   0  0  2  0  0  0
   -6.4578  -13.6704    0.0000 O   0  0
   -7.2091  -14.9696    0.0000 C   0  0
   -6.4596  -16.2690    0.0000 C   0  0
   -8.7091  -14.9696    0.0000 O   0  0
   -5.6911  -14.9351    0.0000 C   0  0
   -4.4333  -15.6762    0.0000 O   0  0
   -3.6923  -14.4183    0.0000 C   0  0  2  0  0  0
   -2.4359  -13.6945    0.0000 C   0  0
   -2.4423  -12.2210    0.0000 C   0  0  2  0  0  0
   -1.1438  -11.4700    0.0000 O   0  0
  1  2  1  0
  2  3  2  0
  2  4  1  0
  5  4  1  6
  5  6  1  0
  6  7  2  0
  6  8  1  0
  8  9  1  1
 10  8  1  1
 10 11  1  0
 11 12  1  6
 12 13  1  0
 13 14  2  0
 13 15  1  0
 15 16  2  0
 16 17  1  0
 17 18  2  0
 18 19  1  0
 19 20  2  0
 20 15  1  0
 11 21  1  0
 21 22  1  6
 21 23  1  0
 23 24  1  0
 24 25  1  6
 25 26  1  0
 26 27  2  0
 26 28  1  0
 28 29  1  6
 28 30  1  0
 30 31  1  1
 31 32  1  0
 32 33  2  0
 32 34  1  0
 34 35  2  0
 35 36  1  0
 36 37  2  0
 37 38  1  0
 38 39  2  0
 39 34  1  0
 30 40  1  0
 40 41  2  0
 41 42  1  0
 42 43  2  0
 43 44  1  0
 44 45  2  0
 45 40  1  0
 24 46  1  0
 46 47  1  0
 46 48  2  0
 48  5  1  0
 48 49  1  0
 49 21  1  0
 49 50  1  0
 49 51  1  0
 10 52  1  0
 52 53  1  6
 53 54  1  0
 54 55  1  0
 54 56  2  0
 52 57  1  0
 57 58  1  0
 59 58  1  1
 59 52  1  0
 59 60  1  0
 60 61  1  0
 61  8  1  0
 61 62  1  1
M  END
> <assay_chembl_id>
CHEMBL825132

> <assay_description>
Antiproliferative activity against prostate cancer LNCaP Cell line using sulforhodamine B(SRB) assay

> <document_journal>
J Med Chem

> <molecule_chembl_id>
CHEMBL428647

> <standard_value>
2

> <IC50_uM>
0.002

> <Activity>
Yes

> <Canonical_Smiles>
CC(=O)O[C@H]1C(=O)[C@@]2(C)[C@H]([C@H](OC(=O)c3ccccc3)[C@]3(O)C[C@H](OC(=O)[C@H](O)[C@@H](NC(=O)c4ccccc4)c4ccccc4)C(C)=C1C3(C)C)[C@]1(OC(C)=O)CO[C@@H]1C[C@@H]2O

$$$$

  SciTegic03142313312D

 23 26  0  0  0  0            999 V2000
    3.8983   -0.7459    0.0000 C   0  0
    2.6003   -1.4977    0.0000 O   0  0
    1.2990   -0.7500    0.0000 C   0  0
    1.2990    0.7500    0.0000 C   0  0
    0.0000    1.5000    0.0000 C   0  0
   -1.2990    0.7500    0.0000 C   0  0
   -1.2990   -0.7500    0.0000 C   0  0
    0.0000   -1.5000    0.0000 C   0  0
   -0.0031   -3.0008    0.0000 O   0  0
   -1.3032   -3.7490    0.0000 C   0  0
   -2.4133    1.7530    0.0000 C   0  0
   -3.9032    1.9089    0.0000 N   0  0
   -4.2151    3.3761    0.0000 N   0  0
   -2.9160    4.1261    0.0000 C   0  0
   -2.7618    5.6164    0.0000 N   0  0
   -3.9768    6.4974    0.0000 C   0  0
   -3.8246    7.9897    0.0000 C   0  0
   -5.0407    8.8678    0.0000 C   0  0
   -6.4092    8.2536    0.0000 C   0  0
   -6.5616    6.7613    0.0000 C   0  0
   -5.3454    5.8833    0.0000 C   0  0
   -1.8032    3.1233    0.0000 C   0  0
   -0.3115    2.9665    0.0000 C   0  0
  1  2  1  0
  2  3  1  0
  3  4  2  0
  4  5  1  0
  5  6  2  0
  6  7  1  0
  7  8  2  0
  8  3  1  0
  8  9  1  0
  9 10  1  0
  6 11  1  0
 11 12  2  0
 12 13  1  0
 13 14  1  0
 14 15  1  0
 15 16  1  0
 16 17  2  0
 17 18  1  0
 18 19  2  0
 19 20  1  0
 20 21  2  0
 21 16  1  0
 14 22  2  0
 22 11  1  0
 22 23  1  0
 23  5  1  0
M  END
> <assay_chembl_id>
CHEMBL861469

> <assay_description>
Antiproliferative activity against human prostate tumor cell line LnCAP

> <document_journal>
J Med Chem

> <molecule_chembl_id>
CHEMBL432219

> <standard_value>
600

> <IC50_uM>
0.6

> <Activity>
Yes

> <Canonical_Smiles>
COc1cc2c(cc1OC)-c1n[nH]c(Nc3ccccc3)c1C2

$$$$

  SciTegic03142313312D

 25 28  0  0  0  0            999 V2000
   -0.0115   -9.3230    0.0000 C   0  0
    1.3561   -9.9392    0.0000 O   0  0
    2.5748   -9.0631    0.0000 C   0  0
    3.9433   -9.6773    0.0000 C   0  0
    5.1594   -8.7992    0.0000 C   0  0
    5.0071   -7.3070    0.0000 C   0  0
    3.6386   -6.6927    0.0000 C   0  0
    3.4831   -5.2000    0.0000 N   0  0
    2.1153   -4.5884    0.0000 C   0  0
    0.8163   -5.3384    0.0000 N   0  0
   -0.2984   -4.3347    0.0000 N   0  0
    0.3114   -2.9665    0.0000 C   0  0
    1.8032   -3.1233    0.0000 C   0  0
    2.4133   -1.7530    0.0000 C   0  0
    1.2990   -0.7500    0.0000 C   0  0
    1.2990    0.7500    0.0000 C   0  0
    0.0000    1.5000    0.0000 C   0  0
    0.0031    3.0008    0.0000 O   0  0
    1.3032    3.7490    0.0000 C   0  0
   -1.2990    0.7500    0.0000 C   0  0
   -2.6003    1.4977    0.0000 O   0  0
   -3.8983    0.7459    0.0000 C   0  0
   -1.2990   -0.7500    0.0000 C   0  0
    0.0000   -1.5000    0.0000 C   0  0
    2.4224   -7.5709    0.0000 C   0  0
  1  2  1  0
  2  3  1  0
  3  4  2  0
  4  5  1  0
  5  6  2  0
  6  7  1  0
  7  8  1  0
  8  9  1  0
  9 10  1  0
 10 11  1  0
 11 12  2  0
 12 13  1  0
 13  9  2  0
 13 14  1  0
 14 15  1  0
 15 16  2  0
 16 17  1  0
 17 18  1  0
 18 19  1  0
 17 20  2  0
 20 21  1  0
 21 22  1  0
 20 23  1  0
 23 24  2  0
 24 15  1  0
 24 12  1  0
  7 25  2  0
 25  3  1  0
M  END
> <assay_chembl_id>
CHEMBL861469

> <assay_description>
Antiproliferative activity against human prostate tumor cell line LnCAP

> <document_journal>
J Med Chem

> <molecule_chembl_id>
CHEMBL120634

> <standard_value>
5

> <IC50_uM>
0.005

> <Activity>
Yes

> <Canonical_Smiles>
COc1cccc(Nc2[nH]nc3c2Cc2cc(OC)c(OC)cc2-3)c1

$$$$

  SciTegic03142313312D

 24 27  0  0  0  0            999 V2000
    3.8983   -0.7459    0.0000 C   0  0
    2.6003   -1.4977    0.0000 O   0  0
    1.2990   -0.7500    0.0000 C   0  0
    1.2990    0.7500    0.0000 C   0  0
    0.0000    1.5000    0.0000 C   0  0
   -1.2990    0.7500    0.0000 C   0  0
   -1.2990   -0.7500    0.0000 C   0  0
    0.0000   -1.5000    0.0000 C   0  0
   -0.0031   -3.0008    0.0000 O   0  0
   -1.3032   -3.7490    0.0000 C   0  0
   -2.4133    1.7530    0.0000 C   0  0
   -3.9032    1.9089    0.0000 N   0  0
   -4.2151    3.3761    0.0000 N   0  0
   -2.9160    4.1261    0.0000 C   0  0
   -2.7618    5.6164    0.0000 N   0  0
   -3.9768    6.4974    0.0000 C   0  0
   -3.8246    7.9897    0.0000 C   0  0
   -5.0407    8.8678    0.0000 C   0  0
   -6.4092    8.2536    0.0000 C   0  0
   -6.5616    6.7613    0.0000 C   0  0
   -7.9300    6.1471    0.0000 C   0  0
   -5.3454    5.8833    0.0000 C   0  0
   -1.8032    3.1233    0.0000 C   0  0
   -0.3115    2.9665    0.0000 C   0  0
  1  2  1  0
  2  3  1  0
  3  4  2  0
  4  5  1  0
  5  6  2  0
  6  7  1  0
  7  8  2  0
  8  3  1  0
  8  9  1  0
  9 10  1  0
  6 11  1  0
 11 12  2  0
 12 13  1  0
 13 14  1  0
 14 15  1  0
 15 16  1  0
 16 17  2  0
 17 18  1  0
 18 19  2  0
 19 20  1  0
 20 21  1  0
 20 22  2  0
 22 16  1  0
 14 23  2  0
 23 11  1  0
 23 24  1  0
 24  5  1  0
M  END
> <assay_chembl_id>
CHEMBL861469

> <assay_description>
Antiproliferative activity against human prostate tumor cell line LnCAP

> <document_journal>
J Med Chem

> <molecule_chembl_id>
CHEMBL331760

> <standard_value>
1

> <IC50_uM>
0.001

> <Activity>
Yes

> <Canonical_Smiles>
COc1cc2c(cc1OC)-c1n[nH]c(Nc3cccc(C)c3)c1C2

$$$$

  SciTegic03142313312D

 24 27  0  0  0  0            999 V2000
    3.8983   -0.7459    0.0000 C   0  0
    2.6003   -1.4977    0.0000 O   0  0
    1.2990   -0.7500    0.0000 C   0  0
    1.2990    0.7500    0.0000 C   0  0
    0.0000    1.5000    0.0000 C   0  0
   -1.2990    0.7500    0.0000 C   0  0
   -1.2990   -0.7500    0.0000 C   0  0
    0.0000   -1.5000    0.0000 C   0  0
   -0.0031   -3.0008    0.0000 O   0  0
   -1.3032   -3.7490    0.0000 C   0  0
   -2.4133    1.7530    0.0000 C   0  0
   -3.9032    1.9089    0.0000 N   0  0
   -4.2151    3.3761    0.0000 N   0  0
   -2.9160    4.1261    0.0000 C   0  0
   -2.7618    5.6164    0.0000 N   0  0
   -3.9768    6.4974    0.0000 C   0  0
   -3.8246    7.9897    0.0000 C   0  0
   -5.0407    8.8678    0.0000 C   0  0
   -6.4092    8.2536    0.0000 C   0  0
   -6.5616    6.7613    0.0000 C   0  0
   -7.9300    6.1471    0.0000 Br  0  0
   -5.3454    5.8833    0.0000 C   0  0
   -1.8032    3.1233    0.0000 C   0  0
   -0.3115    2.9665    0.0000 C   0  0
  1  2  1  0
  2  3  1  0
  3  4  2  0
  4  5  1  0
  5  6  2  0
  6  7  1  0
  7  8  2  0
  8  3  1  0
  8  9  1  0
  9 10  1  0
  6 11  1  0
 11 12  2  0
 12 13  1  0
 13 14  1  0
 14 15  1  0
 15 16  1  0
 16 17  2  0
 17 18  1  0
 18 19  2  0
 19 20  1  0
 20 21  1  0
 20 22  2  0
 22 16  1  0
 14 23  2  0
 23 11  1  0
 23 24  1  0
 24  5  1  0
M  END
> <assay_chembl_id>
CHEMBL861469

> <assay_description>
Antiproliferative activity against human prostate tumor cell line LnCAP

> <document_journal>
J Med Chem

> <molecule_chembl_id>
CHEMBL120862

> <standard_value>
2

> <IC50_uM>
0.002

> <Activity>
Yes

> <Canonical_Smiles>
COc1cc2c(cc1OC)-c1n[nH]c(Nc3cccc(Br)c3)c1C2

$$$$

  SciTegic03142313312D

 24 27  0  0  0  0            999 V2000
    3.8983   -0.7459    0.0000 C   0  0
    2.6003   -1.4977    0.0000 O   0  0
    1.2990   -0.7500    0.0000 C   0  0
    1.2990    0.7500    0.0000 C   0  0
    0.0000    1.5000    0.0000 C   0  0
   -1.2990    0.7500    0.0000 C   0  0
   -1.2990   -0.7500    0.0000 C   0  0
    0.0000   -1.5000    0.0000 C   0  0
   -0.0031   -3.0008    0.0000 O   0  0
   -1.3032   -3.7490    0.0000 C   0  0
   -2.4133    1.7530    0.0000 C   0  0
   -3.9032    1.9089    0.0000 N   0  0
   -4.2151    3.3761    0.0000 N   0  0
   -2.9160    4.1261    0.0000 C   0  0
   -2.7618    5.6164    0.0000 N   0  0
   -3.9768    6.4974    0.0000 C   0  0
   -3.8246    7.9897    0.0000 C   0  0
   -5.0407    8.8678    0.0000 C   0  0
   -6.4092    8.2536    0.0000 C   0  0
   -6.5616    6.7613    0.0000 C   0  0
   -7.9300    6.1471    0.0000 F   0  0
   -5.3454    5.8833    0.0000 C   0  0
   -1.8032    3.1233    0.0000 C   0  0
   -0.3115    2.9665    0.0000 C   0  0
  1  2  1  0
  2  3  1  0
  3  4  2  0
  4  5  1  0
  5  6  2  0
  6  7  1  0
  7  8  2  0
  8  3  1  0
  8  9  1  0
  9 10  1  0
  6 11  1  0
 11 12  2  0
 12 13  1  0
 13 14  1  0
 14 15  1  0
 15 16  1  0
 16 17  2  0
 17 18  1  0
 18 19  2  0
 19 20  1  0
 20 21  1  0
 20 22  2  0
 22 16  1  0
 14 23  2  0
 23 11  1  0
 23 24  1  0
 24  5  1  0
M  END
> <assay_chembl_id>
CHEMBL861469

> <assay_description>
Antiproliferative activity against human prostate tumor cell line LnCAP

> <document_journal>
J Med Chem

> <molecule_chembl_id>
CHEMBL120077

> <standard_value>
9

> <IC50_uM>
0.009

> <Activity>
Yes

> <Canonical_Smiles>
COc1cc2c(cc1OC)-c1n[nH]c(Nc3cccc(F)c3)c1C2

$$$$

  SciTegic03142313312D

 27 30  0  0  0  0            999 V2000
    3.8983   -0.7459    0.0000 C   0  0
    2.6003   -1.4977    0.0000 O   0  0
    1.2990   -0.7500    0.0000 C   0  0
    1.2990    0.7500    0.0000 C   0  0
    0.0000    1.5000    0.0000 C   0  0
   -1.2990    0.7500    0.0000 C   0  0
   -1.2990   -0.7500    0.0000 C   0  0
    0.0000   -1.5000    0.0000 C   0  0
   -0.0031   -3.0008    0.0000 O   0  0
   -1.3032   -3.7490    0.0000 C   0  0
   -2.4133    1.7530    0.0000 C   0  0
   -3.9032    1.9089    0.0000 N   0  0
   -4.2151    3.3761    0.0000 N   0  0
   -2.9160    4.1261    0.0000 C   0  0
   -2.7618    5.6164    0.0000 N   0  0
   -3.9768    6.4974    0.0000 C   0  0
   -3.8246    7.9897    0.0000 C   0  0
   -5.0407    8.8678    0.0000 C   0  0
   -6.4092    8.2536    0.0000 C   0  0
   -6.5616    6.7613    0.0000 C   0  0
   -7.9308    6.1468    0.0000 C   0  0
   -9.1475    7.0241    0.0000 F   0  0
   -8.0827    4.6545    0.0000 F   0  0
   -9.2990    5.5319    0.0000 F   0  0
   -5.3454    5.8833    0.0000 C   0  0
   -1.8032    3.1233    0.0000 C   0  0
   -0.3115    2.9665    0.0000 C   0  0
  1  2  1  0
  2  3  1  0
  3  4  2  0
  4  5  1  0
  5  6  2  0
  6  7  1  0
  7  8  2  0
  8  3  1  0
  8  9  1  0
  9 10  1  0
  6 11  1  0
 11 12  2  0
 12 13  1  0
 13 14  1  0
 14 15  1  0
 15 16  1  0
 16 17  2  0
 17 18  1  0
 18 19  2  0
 19 20  1  0
 20 21  1  0
 21 22  1  0
 21 23  1  0
 21 24  1  0
 20 25  2  0
 25 16  1  0
 14 26  2  0
 26 11  1  0
 26 27  1  0
 27  5  1  0
M  END
> <assay_chembl_id>
CHEMBL861469

> <assay_description>
Antiproliferative activity against human prostate tumor cell line LnCAP

> <document_journal>
J Med Chem

> <molecule_chembl_id>
CHEMBL184948

> <standard_value>
255

> <IC50_uM>
0.255

> <Activity>
Yes

> <Canonical_Smiles>
COc1cc2c(cc1OC)-c1n[nH]c(Nc3cccc(C(F)(F)F)c3)c1C2

$$$$

  SciTegic03142313312D

 31 33  0  0  1  0            999 V2000
   -5.0084  -10.2657    0.0000 C   0  0
   -5.4781   -8.8411    0.0000 C   0  0
   -6.9467   -8.5360    0.0000 C   0  0
   -4.4793   -7.7208    0.0000 C   0  0
   -4.9493   -6.2955    0.0000 C   0  0
   -3.9506   -5.1752    0.0000 C   0  0
   -4.4205   -3.7498    0.0000 C   0  0
   -5.8891   -3.4448    0.0000 C   0  0
   -3.4218   -2.6295    0.0000 C   0  0
   -3.8909   -1.2065    0.0000 C   0  0  1  0  0  0
   -5.3236   -0.7540    0.0000 O   0  0
   -5.3236    0.7390    0.0000 C   0  0
   -6.5377    1.6199    0.0000 O   0  0
   -3.8909    1.2065    0.0000 C   0  0
   -3.0162    0.0000    0.0000 C   0  0  2  0  0  0
   -2.2621    1.2970    0.0000 C   0  0
   -0.7540    1.2970    0.0000 C   0  0  2  0  0  0
   -0.0064    2.5983    0.0000 O   0  0
   -0.7588    3.8970    0.0000 C   0  0
   -2.2588    3.8943    0.0000 O   0  0
   -0.0111    5.1983    0.0000 C   0  0
   -0.7612    6.4974    0.0000 C   0  0
   -0.0113    7.7965    0.0000 C   0  0
    1.4887    7.7966    0.0000 C   0  0
    2.2386    9.0957    0.0000 Br  0  0
    2.2388    6.4976    0.0000 C   0  0
    1.4889    5.1985    0.0000 C   0  0
    0.0000    0.0000    0.0000 C   0  0
   -0.7540   -1.2970    0.0000 C   0  0
   -2.2621   -1.2970    0.0000 C   0  0
   -2.7608   -2.1637    0.0000 O   0  0
  1  2  1  0
  2  3  1  0
  2  4  2  0
  4  5  1  0
  5  6  1  0
  6  7  1  0
  7  8  1  0
  7  9  2  0
 10  9  1  1
 10 11  1  0
 11 12  1  0
 12 13  2  0
 12 14  1  0
 15 14  1  1
 15 10  1  0
 15 16  1  0
 16 17  1  0
 17 18  1  6
 18 19  1  0
 19 20  2  0
 19 21  1  0
 21 22  2  0
 22 23  1  0
 23 24  2  0
 24 25  1  0
 24 26  1  0
 26 27  2  0
 27 21  1  0
 17 28  1  0
 28 29  2  0
 29 30  1  0
 30 15  1  0
 30 31  2  0
M  END
> <assay_chembl_id>
CHEMBL859115

> <assay_description>
Cytotoxicity against human prostate carcinoma LNCaP cell line

> <document_journal>
J Med Chem

> <molecule_chembl_id>
CHEMBL382137

> <standard_value>
940

> <IC50_uM>
0.94

> <Activity>
Yes

> <Canonical_Smiles>
CC(C)=CCC/C(C)=C/[C@H]1OC(=O)C[C@]12C[C@H](OC(=O)c1ccc(Br)cc1)C=CC2=O

$$$$

  SciTegic03142313312D

 32 34  0  0  1  0            999 V2000
   -5.0084  -10.2657    0.0000 C   0  0
   -5.4781   -8.8411    0.0000 C   0  0
   -6.9467   -8.5360    0.0000 C   0  0
   -4.4793   -7.7208    0.0000 C   0  0
   -4.9493   -6.2955    0.0000 C   0  0
   -3.9506   -5.1752    0.0000 C   0  0
   -4.4205   -3.7498    0.0000 C   0  0
   -5.8891   -3.4448    0.0000 C   0  0
   -3.4218   -2.6295    0.0000 C   0  0
   -3.8909   -1.2065    0.0000 C   0  0  1  0  0  0
   -5.3236   -0.7540    0.0000 O   0  0
   -5.3236    0.7390    0.0000 C   0  0
   -6.5377    1.6199    0.0000 O   0  0
   -3.8909    1.2065    0.0000 C   0  0
   -3.0162    0.0000    0.0000 C   0  0  2  0  0  0
   -2.2621    1.2970    0.0000 C   0  0
   -0.7540    1.2970    0.0000 C   0  0  2  0  0  0
   -0.0064    2.5983    0.0000 O   0  0
   -0.7588    3.8970    0.0000 C   0  0
   -2.2588    3.8943    0.0000 O   0  0
   -0.0111    5.1983    0.0000 C   0  0
   -0.7612    6.4974    0.0000 C   0  0
   -2.2612    6.4973    0.0000 Cl  0  0
   -0.0113    7.7965    0.0000 C   0  0
    1.4887    7.7966    0.0000 C   0  0
    2.2388    6.4976    0.0000 C   0  0
    1.4889    5.1985    0.0000 C   0  0
    2.2391    3.8996    0.0000 Cl  0  0
    0.0000    0.0000    0.0000 C   0  0
   -0.7540   -1.2970    0.0000 C   0  0
   -2.2621   -1.2970    0.0000 C   0  0
   -2.7608   -2.1637    0.0000 O   0  0
  1  2  1  0
  2  3  1  0
  2  4  2  0
  4  5  1  0
  5  6  1  0
  6  7  1  0
  7  8  1  0
  7  9  2  0
 10  9  1  1
 10 11  1  0
 11 12  1  0
 12 13  2  0
 12 14  1  0
 15 14  1  1
 15 10  1  0
 15 16  1  0
 16 17  1  0
 17 18  1  6
 18 19  1  0
 19 20  2  0
 19 21  1  0
 21 22  2  0
 22 23  1  0
 22 24  1  0
 24 25  2  0
 25 26  1  0
 26 27  2  0
 27 21  1  0
 27 28  1  0
 17 29  1  0
 29 30  2  0
 30 31  1  0
 31 15  1  0
 31 32  2  0
M  END
> <assay_chembl_id>
CHEMBL859115

> <assay_description>
Cytotoxicity against human prostate carcinoma LNCaP cell line

> <document_journal>
J Med Chem

> <molecule_chembl_id>
CHEMBL201380

> <standard_value>
360

> <IC50_uM>
0.36

> <Activity>
Yes

> <Canonical_Smiles>
CC(C)=CCC/C(C)=C/[C@H]1OC(=O)C[C@]12C[C@H](OC(=O)c1c(Cl)cccc1Cl)C=CC2=O

$$$$

  SciTegic03142313312D

 36 38  0  0  1  0            999 V2000
   -2.2645    9.0923    0.0000 C   0  0
   -0.7645    9.0946    0.0000 O   0  0
   -0.0113    7.7965    0.0000 C   0  0
   -0.7612    6.4973    0.0000 C   0  0
   -0.0111    5.1983    0.0000 C   0  0
   -0.7588    3.8970    0.0000 C   0  0
   -2.2588    3.8943    0.0000 O   0  0
   -0.0064    2.5983    0.0000 O   0  0
   -0.7540    1.2970    0.0000 C   0  0  2  0  0  0
    0.0000    0.0000    0.0000 C   0  0
   -0.7540   -1.2970    0.0000 C   0  0
   -2.2621   -1.2970    0.0000 C   0  0
   -2.7608   -2.1637    0.0000 O   0  0
   -3.0162    0.0000    0.0000 C   0  0  2  0  0  0
   -3.8909    1.2065    0.0000 C   0  0
   -5.3236    0.7390    0.0000 C   0  0
   -6.5377    1.6199    0.0000 O   0  0
   -5.3236   -0.7540    0.0000 O   0  0
   -3.8909   -1.2065    0.0000 C   0  0  2  0  0  0
   -3.4218   -2.6295    0.0000 C   0  0
   -4.4205   -3.7498    0.0000 C   0  0
   -5.8891   -3.4448    0.0000 C   0  0
   -3.9506   -5.1752    0.0000 C   0  0
   -4.9493   -6.2955    0.0000 C   0  0
   -4.4793   -7.7208    0.0000 C   0  0
   -5.4781   -8.8411    0.0000 C   0  0
   -5.0084  -10.2657    0.0000 C   0  0
   -6.9467   -8.5360    0.0000 C   0  0
   -2.2621    1.2970    0.0000 C   0  0
    1.4889    5.1985    0.0000 C   0  0
    2.2388    6.4976    0.0000 C   0  0
    3.7397    6.4947    0.0000 O   0  0
    4.4879    5.1946    0.0000 C   0  0
    1.4887    7.7966    0.0000 C   0  0
    2.2363    9.0980    0.0000 O   0  0
    1.4844   10.3959    0.0000 C   0  0
  1  2  1  0
  2  3  1  0
  3  4  2  0
  4  5  1  0
  5  6  1  0
  6  7  2  0
  6  8  1  0
  9  8  1  6
  9 10  1  0
 10 11  2  0
 11 12  1  0
 12 13  2  0
 12 14  1  0
 14 15  1  1
 15 16  1  0
 16 17  2  0
 16 18  1  0
 18 19  1  0
 19 14  1  0
 19 20  1  1
 20 21  2  0
 21 22  1  0
 21 23  1  0
 23 24  1  0
 24 25  1  0
 25 26  2  0
 26 27  1  0
 26 28  1  0
 14 29  1  0
 29  9  1  0
  5 30  2  0
 30 31  1  0
 31 32  1  0
 32 33  1  0
 31 34  2  0
 34  3  1  0
 34 35  1  0
 35 36  1  0
M  END
> <assay_chembl_id>
CHEMBL859115

> <assay_description>
Cytotoxicity against human prostate carcinoma LNCaP cell line

> <document_journal>
J Med Chem

> <molecule_chembl_id>
CHEMBL380823

> <standard_value>
490

> <IC50_uM>
0.49

> <Activity>
Yes

> <Canonical_Smiles>
COc1cc(C(=O)O[C@@H]2C=CC(=O)[C@@]3(CC(=O)O[C@@H]3/C=C(\C)CCC=C(C)C)C2)cc(OC)c1OC

$$$$

  SciTegic03142313312D

 34 36  0  0  1  0            999 V2000
    4.4879    5.1946    0.0000 C   0  0
    3.7397    6.4947    0.0000 O   0  0
    2.2388    6.4976    0.0000 C   0  0
    1.4887    7.7966    0.0000 C   0  0
   -0.0113    7.7965    0.0000 C   0  0
   -0.7645    9.0946    0.0000 O   0  0
   -2.2645    9.0923    0.0000 C   0  0
   -0.7612    6.4973    0.0000 C   0  0
   -0.0111    5.1983    0.0000 C   0  0
   -0.7588    3.8970    0.0000 C   0  0
   -2.2588    3.8943    0.0000 O   0  0
   -0.0064    2.5983    0.0000 O   0  0
   -0.7540    1.2970    0.0000 C   0  0  2  0  0  0
    0.0000    0.0000    0.0000 C   0  0
   -0.7540   -1.2970    0.0000 C   0  0
   -2.2621   -1.2970    0.0000 C   0  0
   -2.7608   -2.1637    0.0000 O   0  0
   -3.0162    0.0000    0.0000 C   0  0  2  0  0  0
   -3.8909    1.2065    0.0000 C   0  0
   -5.3236    0.7390    0.0000 C   0  0
   -6.5377    1.6199    0.0000 O   0  0
   -5.3236   -0.7540    0.0000 O   0  0
   -3.8909   -1.2065    0.0000 C   0  0  2  0  0  0
   -3.4218   -2.6295    0.0000 C   0  0
   -4.4205   -3.7498    0.0000 C   0  0
   -5.8891   -3.4448    0.0000 C   0  0
   -3.9506   -5.1752    0.0000 C   0  0
   -4.9493   -6.2955    0.0000 C   0  0
   -4.4793   -7.7208    0.0000 C   0  0
   -5.4781   -8.8411    0.0000 C   0  0
   -5.0084  -10.2657    0.0000 C   0  0
   -6.9467   -8.5360    0.0000 C   0  0
   -2.2621    1.2970    0.0000 C   0  0
    1.4889    5.1985    0.0000 C   0  0
  1  2  1  0
  2  3  1  0
  3  4  2  0
  4  5  1  0
  5  6  1  0
  6  7  1  0
  5  8  2  0
  8  9  1  0
  9 10  1  0
 10 11  2  0
 10 12  1  0
 13 12  1  6
 13 14  1  0
 14 15  2  0
 15 16  1  0
 16 17  2  0
 16 18  1  0
 18 19  1  1
 19 20  1  0
 20 21  2  0
 20 22  1  0
 22 23  1  0
 23 18  1  0
 23 24  1  1
 24 25  2  0
 25 26  1  0
 25 27  1  0
 27 28  1  0
 28 29  1  0
 29 30  2  0
 30 31  1  0
 30 32  1  0
 18 33  1  0
 33 13  1  0
  9 34  2  0
 34  3  1  0
M  END
> <assay_chembl_id>
CHEMBL859115

> <assay_description>
Cytotoxicity against human prostate carcinoma LNCaP cell line

> <document_journal>
J Med Chem

> <molecule_chembl_id>
CHEMBL199604

> <standard_value>
800

> <IC50_uM>
0.8

> <Activity>
Yes

> <Canonical_Smiles>
COc1cc(OC)cc(C(=O)O[C@@H]2C=CC(=O)[C@@]3(CC(=O)O[C@@H]3/C=C(\C)CCC=C(C)C)C2)c1

$$$$

  SciTegic03142313312D

 34 36  0  0  1  0            999 V2000
    1.4844   10.3959    0.0000 C   0  0
    2.2363    9.0980    0.0000 O   0  0
    1.4887    7.7966    0.0000 C   0  0
   -0.0113    7.7965    0.0000 C   0  0
   -0.7612    6.4973    0.0000 C   0  0
   -0.0111    5.1983    0.0000 C   0  0
   -0.7588    3.8970    0.0000 C   0  0
   -2.2588    3.8943    0.0000 O   0  0
   -0.0064    2.5983    0.0000 O   0  0
   -0.7540    1.2970    0.0000 C   0  0  2  0  0  0
    0.0000    0.0000    0.0000 C   0  0
   -0.7540   -1.2970    0.0000 C   0  0
   -2.2621   -1.2970    0.0000 C   0  0
   -2.7608   -2.1637    0.0000 O   0  0
   -3.0162    0.0000    0.0000 C   0  0  2  0  0  0
   -3.8909    1.2065    0.0000 C   0  0
   -5.3236    0.7390    0.0000 C   0  0
   -6.5377    1.6199    0.0000 O   0  0
   -5.3236   -0.7540    0.0000 O   0  0
   -3.8909   -1.2065    0.0000 C   0  0  2  0  0  0
   -3.4218   -2.6295    0.0000 C   0  0
   -4.4205   -3.7498    0.0000 C   0  0
   -5.8891   -3.4448    0.0000 C   0  0
   -3.9506   -5.1752    0.0000 C   0  0
   -4.9493   -6.2955    0.0000 C   0  0
   -4.4793   -7.7208    0.0000 C   0  0
   -5.4781   -8.8411    0.0000 C   0  0
   -5.0084  -10.2657    0.0000 C   0  0
   -6.9467   -8.5360    0.0000 C   0  0
   -2.2621    1.2970    0.0000 C   0  0
    1.4889    5.1985    0.0000 C   0  0
    2.2388    6.4976    0.0000 C   0  0
    3.7397    6.4947    0.0000 O   0  0
    4.4879    5.1946    0.0000 C   0  0
  1  2  1  0
  2  3  1  0
  3  4  2  0
  4  5  1  0
  5  6  2  0
  6  7  1  0
  7  8  2  0
  7  9  1  0
 10  9  1  6
 10 11  1  0
 11 12  2  0
 12 13  1  0
 13 14  2  0
 13 15  1  0
 15 16  1  1
 16 17  1  0
 17 18  2  0
 17 19  1  0
 19 20  1  0
 20 15  1  0
 20 21  1  1
 21 22  2  0
 22 23  1  0
 22 24  1  0
 24 25  1  0
 25 26  1  0
 26 27  2  0
 27 28  1  0
 27 29  1  0
 15 30  1  0
 30 10  1  0
  6 31  1  0
 31 32  2  0
 32  3  1  0
 32 33  1  0
 33 34  1  0
M  END
> <assay_chembl_id>
CHEMBL859115

> <assay_description>
Cytotoxicity against human prostate carcinoma LNCaP cell line

> <document_journal>
J Med Chem

> <molecule_chembl_id>
CHEMBL199601

> <standard_value>
670

> <IC50_uM>
0.67

> <Activity>
Yes

> <Canonical_Smiles>
COc1ccc(C(=O)O[C@@H]2C=CC(=O)[C@@]3(CC(=O)O[C@@H]3/C=C(\C)CCC=C(C)C)C2)cc1OC

$$$$

  SciTegic03142313312D

 34 36  0  0  1  0            999 V2000
    3.7422    3.9027    0.0000 C   0  0
    2.2422    3.9004    0.0000 O   0  0
    1.4889    5.1985    0.0000 C   0  0
    2.2388    6.4976    0.0000 C   0  0
    1.4887    7.7966    0.0000 C   0  0
   -0.0113    7.7965    0.0000 C   0  0
   -0.7612    6.4973    0.0000 C   0  0
   -2.2620    6.5004    0.0000 O   0  0
   -3.0102    7.8004    0.0000 C   0  0
   -0.0111    5.1983    0.0000 C   0  0
   -0.7588    3.8970    0.0000 C   0  0
   -2.2588    3.8943    0.0000 O   0  0
   -0.0064    2.5983    0.0000 O   0  0
   -0.7540    1.2970    0.0000 C   0  0  2  0  0  0
    0.0000    0.0000    0.0000 C   0  0
   -0.7540   -1.2970    0.0000 C   0  0
   -2.2621   -1.2970    0.0000 C   0  0
   -2.7608   -2.1637    0.0000 O   0  0
   -3.0162    0.0000    0.0000 C   0  0  2  0  0  0
   -3.8909    1.2065    0.0000 C   0  0
   -5.3236    0.7390    0.0000 C   0  0
   -6.5377    1.6199    0.0000 O   0  0
   -5.3236   -0.7540    0.0000 O   0  0
   -3.8909   -1.2065    0.0000 C   0  0  2  0  0  0
   -3.4218   -2.6295    0.0000 C   0  0
   -4.4205   -3.7498    0.0000 C   0  0
   -5.8891   -3.4448    0.0000 C   0  0
   -3.9506   -5.1752    0.0000 C   0  0
   -4.9493   -6.2955    0.0000 C   0  0
   -4.4793   -7.7208    0.0000 C   0  0
   -5.4781   -8.8411    0.0000 C   0  0
   -5.0084  -10.2657    0.0000 C   0  0
   -6.9467   -8.5360    0.0000 C   0  0
   -2.2621    1.2970    0.0000 C   0  0
  1  2  1  0
  2  3  1  0
  3  4  2  0
  4  5  1  0
  5  6  2  0
  6  7  1  0
  7  8  1  0
  8  9  1  0
  7 10  2  0
 10  3  1  0
 10 11  1  0
 11 12  2  0
 11 13  1  0
 14 13  1  6
 14 15  1  0
 15 16  2  0
 16 17  1  0
 17 18  2  0
 17 19  1  0
 19 20  1  1
 20 21  1  0
 21 22  2  0
 21 23  1  0
 23 24  1  0
 24 19  1  0
 24 25  1  1
 25 26  2  0
 26 27  1  0
 26 28  1  0
 28 29  1  0
 29 30  1  0
 30 31  2  0
 31 32  1  0
 31 33  1  0
 19 34  1  0
 34 14  1  0
M  END
> <assay_chembl_id>
CHEMBL859115

> <assay_description>
Cytotoxicity against human prostate carcinoma LNCaP cell line

> <document_journal>
J Med Chem

> <molecule_chembl_id>
CHEMBL200132

> <standard_value>
450

> <IC50_uM>
0.45

> <Activity>
Yes

> <Canonical_Smiles>
COc1cccc(OC)c1C(=O)O[C@@H]1C=CC(=O)[C@@]2(CC(=O)O[C@@H]2/C=C(\C)CCC=C(C)C)C1

$$$$

  SciTegic03142313312D

 26 27  0  0  1  0            999 V2000
   -2.2588    3.8943    0.0000 C   0  0
   -0.7588    3.8970    0.0000 C   0  0
   -0.0115    5.1976    0.0000 O   0  0
   -0.0064    2.5983    0.0000 O   0  0
   -0.7540    1.2970    0.0000 C   0  0  2  0  0  0
    0.0000    0.0000    0.0000 C   0  0
   -0.7540   -1.2970    0.0000 C   0  0
   -2.2621   -1.2970    0.0000 C   0  0
   -2.7608   -2.1637    0.0000 O   0  0
   -3.0162    0.0000    0.0000 C   0  0  2  0  0  0
   -3.8909    1.2065    0.0000 C   0  0
   -5.3236    0.7390    0.0000 C   0  0
   -6.5377    1.6199    0.0000 O   0  0
   -5.3236   -0.7540    0.0000 O   0  0
   -3.8909   -1.2065    0.0000 C   0  0  2  0  0  0
   -3.4218   -2.6295    0.0000 C   0  0
   -4.4205   -3.7498    0.0000 C   0  0
   -5.8891   -3.4448    0.0000 C   0  0
   -3.9506   -5.1752    0.0000 C   0  0
   -4.9493   -6.2955    0.0000 C   0  0
   -4.4793   -7.7208    0.0000 C   0  0
   -5.4781   -8.8411    0.0000 C   0  0
   -6.4768   -9.9603    0.0000 C   0  0
   -6.9467   -8.5360    0.0000 C   0  0
   -5.0084  -10.2657    0.0000 O   0  0
   -2.2621    1.2970    0.0000 C   0  0
  1  2  1  0
  2  3  2  0
  2  4  1  0
  5  4  1  6
  5  6  1  0
  6  7  2  0
  7  8  1  0
  8  9  2  0
  8 10  1  0
 10 11  1  1
 11 12  1  0
 12 13  2  0
 12 14  1  0
 14 15  1  0
 15 10  1  0
 15 16  1  1
 16 17  2  0
 17 18  1  0
 17 19  1  0
 19 20  1  0
 20 21  2  0
 21 22  1  0
 22 23  1  0
 22 24  1  0
 22 25  1  0
 10 26  1  0
 26  5  1  0
M  END
> <assay_chembl_id>
CHEMBL859115

> <assay_description>
Cytotoxicity against human prostate carcinoma LNCaP cell line

> <document_journal>
J Med Chem

> <molecule_chembl_id>
CHEMBL201637

> <standard_value>
23950

> <IC50_uM>
23.95

> <Activity>
No

> <Canonical_Smiles>
CC(=O)O[C@@H]1C=CC(=O)[C@@]2(CC(=O)O[C@@H]2/C=C(\C)C/C=C/C(C)(C)O)C1

$$$$

  SciTegic03142313312D

 26 27  0  0  1  0            999 V2000
   -5.0084  -10.2657    0.0000 C   0  0
   -5.4781   -8.8411    0.0000 C   0  0
   -6.9467   -8.5360    0.0000 C   0  0
   -4.4793   -7.7208    0.0000 C   0  0  3  0  0  0
   -3.0107   -8.0259    0.0000 O   0  0
   -4.9493   -6.2955    0.0000 C   0  0
   -3.9506   -5.1752    0.0000 C   0  0
   -4.4205   -3.7498    0.0000 C   0  0
   -5.8891   -3.4448    0.0000 C   0  0
   -3.4218   -2.6295    0.0000 C   0  0
   -3.8909   -1.2065    0.0000 C   0  0  1  0  0  0
   -5.3236   -0.7540    0.0000 O   0  0
   -5.3236    0.7390    0.0000 C   0  0
   -6.5377    1.6199    0.0000 O   0  0
   -3.8909    1.2065    0.0000 C   0  0
   -3.0162    0.0000    0.0000 C   0  0  2  0  0  0
   -2.2621    1.2970    0.0000 C   0  0
   -0.7540    1.2970    0.0000 C   0  0  2  0  0  0
   -0.0064    2.5983    0.0000 O   0  0
   -0.7588    3.8970    0.0000 C   0  0
   -2.2588    3.8943    0.0000 C   0  0
   -0.0115    5.1976    0.0000 O   0  0
    0.0000    0.0000    0.0000 C   0  0
   -0.7540   -1.2970    0.0000 C   0  0
   -2.2621   -1.2970    0.0000 C   0  0
   -2.7608   -2.1637    0.0000 O   0  0
  1  2  2  0
  2  3  1  0
  2  4  1  0
  4  5  1  4
  4  6  1  0
  6  7  1  0
  7  8  1  0
  8  9  1  0
  8 10  2  0
 11 10  1  1
 11 12  1  0
 12 13  1  0
 13 14  2  0
 13 15  1  0
 16 15  1  1
 16 11  1  0
 16 17  1  0
 17 18  1  0
 18 19  1  6
 19 20  1  0
 20 21  1  0
 20 22  2  0
 18 23  1  0
 23 24  2  0
 24 25  1  0
 25 16  1  0
 25 26  2  0
M  END
> <assay_chembl_id>
CHEMBL859115

> <assay_description>
Cytotoxicity against human prostate carcinoma LNCaP cell line

> <document_journal>
J Med Chem

> <molecule_chembl_id>
CHEMBL437511

> <standard_value>
27620

> <IC50_uM>
27.62

> <Activity>
No

> <Canonical_Smiles>
C=C(C)C(O)CC/C(C)=C/[C@H]1OC(=O)C[C@]12C[C@H](OC(C)=O)C=CC2=O

$$$$

  SciTegic03142313312D

 26 28  0  0  1  0            999 V2000
   -2.2588    3.8943    0.0000 C   0  0
   -0.7588    3.8970    0.0000 C   0  0
   -0.0115    5.1976    0.0000 O   0  0
   -0.0064    2.5983    0.0000 O   0  0
   -0.7540    1.2970    0.0000 C   0  0  2  0  0  0
    0.0000    0.0000    0.0000 C   0  0
   -0.7540   -1.2970    0.0000 C   0  0
   -2.2621   -1.2970    0.0000 C   0  0
   -2.7608   -2.1637    0.0000 O   0  0
   -3.0162    0.0000    0.0000 C   0  0  2  0  0  0
   -3.8909    1.2065    0.0000 C   0  0
   -5.3236    0.7390    0.0000 C   0  0
   -6.5377    1.6199    0.0000 O   0  0
   -5.3236   -0.7540    0.0000 O   0  0
   -3.8909   -1.2065    0.0000 C   0  0  2  0  0  0
   -3.4218   -2.6295    0.0000 C   0  0
   -4.4205   -3.7498    0.0000 C   0  0
   -5.8891   -3.4448    0.0000 C   0  0
   -3.9506   -5.1752    0.0000 C   0  0
   -4.9493   -6.2955    0.0000 C   0  0
   -4.4793   -7.7208    0.0000 C   0  0  1  0  0  0
   -3.3870   -8.6306    0.0000 O   0  0
   -4.8106   -9.1033    0.0000 C   0  0
   -6.2787   -8.7956    0.0000 C   0  0
   -4.3791  -10.5399    0.0000 C   0  0
   -2.2621    1.2970    0.0000 C   0  0
  1  2  1  0
  2  3  2  0
  2  4  1  0
  5  4  1  6
  5  6  1  0
  6  7  2  0
  7  8  1  0
  8  9  2  0
  8 10  1  0
 10 11  1  1
 11 12  1  0
 12 13  2  0
 12 14  1  0
 14 15  1  0
 15 10  1  0
 15 16  1  1
 16 17  2  0
 17 18  1  0
 17 19  1  0
 19 20  1  0
 21 20  1  1
 21 22  1  0
 22 23  1  0
 23 21  1  0
 23 24  1  0
 23 25  1  0
 10 26  1  0
 26  5  1  0
M  END
> <assay_chembl_id>
CHEMBL859115

> <assay_description>
Cytotoxicity against human prostate carcinoma LNCaP cell line

> <document_journal>
J Med Chem

> <molecule_chembl_id>
CHEMBL197594

> <standard_value>
51820

> <IC50_uM>
51.82

> <Activity>
No

> <Canonical_Smiles>
CC(=O)O[C@@H]1C=CC(=O)[C@@]2(CC(=O)O[C@@H]2/C=C(\C)CC[C@H]2OC2(C)C)C1

$$$$

  SciTegic03142313312D

 23 25  0  0  1  0            999 V2000
   -5.8891   -3.4448    0.0000 C   0  0
   -4.4205   -3.7498    0.0000 C   0  0
   -3.4218   -2.6295    0.0000 C   0  0
   -3.8909   -1.2065    0.0000 C   0  0  1  0  0  0
   -5.3236   -0.7540    0.0000 O   0  0
   -5.3236    0.7390    0.0000 C   0  0
   -6.5377    1.6199    0.0000 O   0  0
   -3.8909    1.2065    0.0000 C   0  0
   -3.0162    0.0000    0.0000 C   0  0  2  0  0  0
   -2.2621    1.2970    0.0000 C   0  0
   -0.7540    1.2970    0.0000 C   0  0  2  0  0  0
   -0.0060    2.5971    0.0000 O   0  0
    0.0000    0.0000    0.0000 C   0  0
   -0.7540   -1.2970    0.0000 C   0  0
   -2.2621   -1.2970    0.0000 C   0  0
   -2.7608   -2.1637    0.0000 O   0  0
   -3.9506   -5.1752    0.0000 C   0  0
   -4.9493   -6.2955    0.0000 C   0  0
   -4.4793   -7.7208    0.0000 C   0  0  1  0  0  0
   -3.3870   -8.6306    0.0000 O   0  0
   -4.8106   -9.1033    0.0000 C   0  0
   -6.2787   -8.7956    0.0000 C   0  0
   -4.3791  -10.5399    0.0000 C   0  0
  1  2  1  0
  2  3  2  0
  4  3  1  1
  4  5  1  0
  5  6  1  0
  6  7  2  0
  6  8  1  0
  9  8  1  1
  9  4  1  0
  9 10  1  0
 10 11  1  0
 11 12  1  6
 11 13  1  0
 13 14  2  0
 14 15  1  0
 15  9  1  0
 15 16  2  0
  2 17  1  0
 17 18  1  0
 19 18  1  1
 19 20  1  0
 20 21  1  0
 21 19  1  0
 21 22  1  0
 21 23  1  0
M  END
> <assay_chembl_id>
CHEMBL859115

> <assay_description>
Cytotoxicity against human prostate carcinoma LNCaP cell line

> <document_journal>
J Med Chem

> <molecule_chembl_id>
CHEMBL383534

> <standard_value>
29560

> <IC50_uM>
29.56

> <Activity>
No

> <Canonical_Smiles>
C/C(=C\[C@H]1OC(=O)C[C@]12C[C@H](O)C=CC2=O)CC[C@H]1OC1(C)C

$$$$

  SciTegic03142313312D

 22 23  0  0  1  0            999 V2000
   -5.0084  -10.2657    0.0000 C   0  0
   -5.4781   -8.8411    0.0000 C   0  0
   -6.9467   -8.5360    0.0000 C   0  0
   -4.4793   -7.7208    0.0000 C   0  0
   -4.9493   -6.2955    0.0000 C   0  0
   -3.9506   -5.1752    0.0000 C   0  0
   -4.4205   -3.7498    0.0000 C   0  0
   -5.8891   -3.4448    0.0000 C   0  0
   -3.4218   -2.6295    0.0000 C   0  0
   -3.8909   -1.2065    0.0000 C   0  0  1  0  0  0
   -5.3236   -0.7540    0.0000 O   0  0
   -5.3236    0.7390    0.0000 C   0  0
   -6.5377    1.6199    0.0000 O   0  0
   -3.8909    1.2065    0.0000 C   0  0
   -3.0162    0.0000    0.0000 C   0  0  2  0  0  0
   -2.2621    1.2970    0.0000 C   0  0
   -0.7540    1.2970    0.0000 C   0  0
   -0.0060    2.5971    0.0000 O   0  0
    0.0000    0.0000    0.0000 C   0  0
   -0.7540   -1.2970    0.0000 C   0  0
   -2.2621   -1.2970    0.0000 C   0  0
   -2.7608   -2.1637    0.0000 O   0  0
  1  2  1  0
  2  3  1  0
  2  4  2  0
  4  5  1  0
  5  6  1  0
  6  7  1  0
  7  8  1  0
  7  9  2  0
 10  9  1  1
 10 11  1  0
 11 12  1  0
 12 13  2  0
 12 14  1  0
 15 14  1  1
 15 10  1  0
 15 16  1  0
 16 17  1  0
 17 18  2  0
 17 19  1  0
 19 20  2  0
 20 21  1  0
 21 15  1  0
 21 22  2  0
M  END
> <assay_chembl_id>
CHEMBL859115

> <assay_description>
Cytotoxicity against human prostate carcinoma LNCaP cell line

> <document_journal>
J Med Chem

> <molecule_chembl_id>
CHEMBL201579

> <standard_value>
43380

> <IC50_uM>
43.38

> <Activity>
No

> <Canonical_Smiles>
CC(C)=CCC/C(C)=C/[C@H]1OC(=O)C[C@]12CC(=O)C=CC2=O

$$$$

  SciTegic03142313312D

 30 32  0  0  0  0            999 V2000
    2.5981   -1.5000    0.0000 C   0  0
    1.2990   -0.7500    0.0000 C   0  0
    1.2990    0.7500    0.0000 C   0  0
    0.0000    1.5000    0.0000 C   0  0
   -0.0031    3.0008    0.0000 N   0  0
   -1.3039    3.7494    0.0000 C   0  0
   -2.6017    2.9971    0.0000 O   0  0
   -1.3070    5.2502    0.0000 N   0  0
   -2.6078    5.9988    0.0000 C   0  0
   -3.9056    5.2465    0.0000 O   0  0
   -2.6109    7.4996    0.0000 C   0  0
   -1.3119    8.2497    0.0000 C   0  0
   -1.3120    9.7497    0.0000 C   0  0
   -2.6110   10.4997    0.0000 C   0  0
   -3.9100    9.7496    0.0000 C   0  0
   -3.9100    8.2496    0.0000 C   0  0
   -5.2113    7.5019    0.0000 N   0  0
   -6.5093    8.2538    0.0000 C   0  0
   -5.2139    6.0019    0.0000 C   0  0
   -1.2990    0.7500    0.0000 C   0  0
   -1.2990   -0.7500    0.0000 C   0  0
    0.0000   -1.5000    0.0000 C   0  0
   -0.0031   -3.0008    0.0000 O   0  0
   -1.3039   -3.7494    0.0000 C   0  0
   -1.3092   -5.2494    0.0000 N   0  0
   -2.6108   -5.9949    0.0000 C   0  0
   -3.9072   -5.2404    0.0000 C   0  0
   -5.2089   -5.9859    0.0000 Br  0  0
   -3.9020   -3.7404    0.0000 C   0  0
   -2.6004   -2.9949    0.0000 N   0  0
  1  2  1  0
  2  3  2  0
  3  4  1  0
  4  5  1  0
  5  6  1  0
  6  7  2  0
  6  8  1  0
  8  9  1  0
  9 10  2  0
  9 11  1  0
 11 12  2  0
 12 13  1  0
 13 14  2  0
 14 15  1  0
 15 16  2  0
 16 11  1  0
 16 17  1  0
 17 18  1  0
 17 19  1  0
  4 20  2  0
 20 21  1  0
 21 22  2  0
 22  2  1  0
 22 23  1  0
 23 24  1  0
 24 25  2  0
 25 26  1  0
 26 27  2  0
 27 28  1  0
 27 29  1  0
 29 30  2  0
 30 24  1  0
M  END
> <assay_chembl_id>
CHEMBL861032

> <assay_description>
Cytotoxicity against human LnCaP cell line by MTT assay

> <document_journal>
J Med Chem

> <molecule_chembl_id>
CHEMBL306688

> <standard_value>
500

> <IC50_uM>
0.5

> <Activity>
Yes

> <Canonical_Smiles>
Cc1cc(NC(=O)NC(=O)c2ccccc2N(C)C)ccc1Oc1ncc(Br)cn1

$$$$

  SciTegic03142313312D

 31 33  0  0  0  0            999 V2000
    5.2029   -2.9932    0.0000 O   0  0
    5.2003   -1.4932    0.0000 C   0  0
    3.8990   -0.7455    0.0000 N   0  0
    2.6003   -1.4977    0.0000 C   0  0
    2.6030   -2.9977    0.0000 O   0  0
    1.2990   -0.7500    0.0000 C   0  0
    1.2990    0.7500    0.0000 C   0  0
    0.0000    1.5000    0.0000 C   0  0
   -1.2990    0.7500    0.0000 C   0  0
   -1.2990   -0.7500    0.0000 C   0  0
    0.0000   -1.5000    0.0000 C   0  0
   -0.0031   -3.0008    0.0000 N   0  3
   -1.3032   -3.7490    0.0000 O   0  0
    1.2947   -3.7531    0.0000 O   0  5
    6.4990   -0.7409    0.0000 N   0  0
    7.8003   -1.4887    0.0000 C   0  0
    9.0994   -0.7387    0.0000 C   0  0
   10.3984   -1.4887    0.0000 C   0  0
   10.3985   -2.9887    0.0000 C   0  0
   11.6983   -3.7391    0.0000 S   0  0
   11.6978   -5.2391    0.0000 O   0  0
   10.3991   -4.4889    0.0000 O   0  0
   12.9985   -2.9894    0.0000 C   0  0
   14.2970   -3.7402    0.0000 N   0  0
   15.5965   -2.9910    0.0000 C   0  0
   15.5975   -1.4910    0.0000 C   0  0
   16.8969   -0.7418    0.0000 Br  0  0
   14.2989   -0.7402    0.0000 C   0  0
   12.9994   -1.4894    0.0000 N   0  0
    9.0995   -3.7387    0.0000 C   0  0
    7.8004   -2.9887    0.0000 C   0  0
  1  2  2  0
  2  3  1  0
  3  4  1  0
  4  5  2  0
  4  6  1  0
  6  7  2  0
  7  8  1  0
  8  9  2  0
  9 10  1  0
 10 11  2  0
 11  6  1  0
 11 12  1  0
 12 13  2  0
 12 14  1  0
  2 15  1  0
 15 16  1  0
 16 17  2  0
 17 18  1  0
 18 19  2  0
 19 20  1  0
 20 21  2  0
 20 22  2  0
 20 23  1  0
 23 24  2  0
 24 25  1  0
 25 26  2  0
 26 27  1  0
 26 28  1  0
 28 29  2  0
 29 23  1  0
 19 30  1  0
 30 31  2  0
 31 16  1  0
M  CHG  2  12   1  14  -1
M  END
> <assay_chembl_id>
CHEMBL861032

> <assay_description>
Cytotoxicity against human LnCaP cell line by MTT assay

> <document_journal>
J Med Chem

> <molecule_chembl_id>
CHEMBL377936

> <standard_value>
500

> <IC50_uM>
0.5

> <Activity>
Yes

> <Canonical_Smiles>
O=C(NC(=O)c1ccccc1[N+](=O)[O-])Nc1ccc(S(=O)(=O)c2ncc(Br)cn2)cc1

$$$$

  SciTegic03142313312D

 27 29  0  0  0  0            999 V2000
    2.5981   -1.5000    0.0000 N   0  0
    1.2990   -0.7500    0.0000 C   0  0
    1.2990    0.7500    0.0000 C   0  0
    0.0000    1.5000    0.0000 C   0  0
   -1.2990    0.7500    0.0000 C   0  0
   -1.2990   -0.7500    0.0000 C   0  0
    0.0000   -1.5000    0.0000 C   0  0
   -0.0031   -3.0008    0.0000 C   0  0
    1.2947   -3.7531    0.0000 O   0  0
   -1.3039   -3.7494    0.0000 N   0  0
   -1.3070   -5.2502    0.0000 C   0  0
   -0.0092   -6.0025    0.0000 O   0  0
   -2.6078   -5.9988    0.0000 N   0  0
   -2.6109   -7.4996    0.0000 C   0  0
   -3.9099   -8.2497    0.0000 C   0  0
   -3.9099   -9.7497    0.0000 C   0  0
   -2.6109  -10.4997    0.0000 C   0  0
   -2.6079  -12.0005    0.0000 S   0  0
   -1.3071  -12.7491    0.0000 C   0  0
   -1.3018  -14.2491    0.0000 N   0  0
   -0.0002  -14.9947    0.0000 C   0  0
    1.2962  -14.2402    0.0000 C   0  0
    2.5979  -14.9857    0.0000 Br  0  0
    1.2911  -12.7402    0.0000 C   0  0
   -0.0105  -11.9947    0.0000 N   0  0
   -1.3119   -9.7497    0.0000 C   0  0
   -1.3118   -8.2497    0.0000 C   0  0
  1  2  1  0
  2  3  2  0
  3  4  1  0
  4  5  2  0
  5  6  1  0
  6  7  2  0
  7  2  1  0
  7  8  1  0
  8  9  2  0
  8 10  1  0
 10 11  1  0
 11 12  2  0
 11 13  1  0
 13 14  1  0
 14 15  2  0
 15 16  1  0
 16 17  2  0
 17 18  1  0
 18 19  1  0
 19 20  2  0
 20 21  1  0
 21 22  2  0
 22 23  1  0
 22 24  1  0
 24 25  2  0
 25 19  1  0
 17 26  1  0
 26 27  2  0
 27 14  1  0
M  END
> <assay_chembl_id>
CHEMBL861032

> <assay_description>
Cytotoxicity against human LnCaP cell line by MTT assay

> <document_journal>
J Med Chem

> <molecule_chembl_id>
CHEMBL203996

> <standard_value>
500

> <IC50_uM>
0.5

> <Activity>
Yes

> <Canonical_Smiles>
Nc1ccccc1C(=O)NC(=O)Nc1ccc(Sc2ncc(Br)cn2)cc1

$$$$

  SciTegic03142313312D

 27 29  0  0  0  0            999 V2000
    2.5981   -1.5000    0.0000 N   0  0
    1.2990   -0.7500    0.0000 C   0  0
    1.2990    0.7500    0.0000 C   0  0
    0.0000    1.5000    0.0000 C   0  0
   -1.2990    0.7500    0.0000 C   0  0
   -1.2990   -0.7500    0.0000 C   0  0
    0.0000   -1.5000    0.0000 C   0  0
   -0.0031   -3.0008    0.0000 C   0  0
    1.2947   -3.7531    0.0000 O   0  0
   -1.3039   -3.7494    0.0000 N   0  0
   -1.3070   -5.2502    0.0000 C   0  0
   -0.0092   -6.0025    0.0000 O   0  0
   -2.6078   -5.9988    0.0000 N   0  0
   -2.6109   -7.4996    0.0000 C   0  0
   -3.9099   -8.2497    0.0000 C   0  0
   -3.9099   -9.7497    0.0000 C   0  0
   -2.6109  -10.4997    0.0000 C   0  0
   -2.6079  -12.0005    0.0000 O   0  0
   -1.3071  -12.7491    0.0000 C   0  0
   -1.3018  -14.2491    0.0000 N   0  0
   -0.0002  -14.9947    0.0000 C   0  0
    1.2962  -14.2402    0.0000 C   0  0
    2.5979  -14.9857    0.0000 Br  0  0
    1.2911  -12.7402    0.0000 C   0  0
   -0.0105  -11.9947    0.0000 N   0  0
   -1.3119   -9.7497    0.0000 C   0  0
   -1.3118   -8.2497    0.0000 C   0  0
  1  2  1  0
  2  3  2  0
  3  4  1  0
  4  5  2  0
  5  6  1  0
  6  7  2  0
  7  2  1  0
  7  8  1  0
  8  9  2  0
  8 10  1  0
 10 11  1  0
 11 12  2  0
 11 13  1  0
 13 14  1  0
 14 15  2  0
 15 16  1  0
 16 17  2  0
 17 18  1  0
 18 19  1  0
 19 20  2  0
 20 21  1  0
 21 22  2  0
 22 23  1  0
 22 24  1  0
 24 25  2  0
 25 19  1  0
 17 26  1  0
 26 27  2  0
 27 14  1  0
M  END
> <assay_chembl_id>
CHEMBL861032

> <assay_description>
Cytotoxicity against human LnCaP cell line by MTT assay

> <document_journal>
J Med Chem

> <molecule_chembl_id>
CHEMBL208272

> <standard_value>
750

> <IC50_uM>
0.75

> <Activity>
Yes

> <Canonical_Smiles>
Nc1ccccc1C(=O)NC(=O)Nc1ccc(Oc2ncc(Br)cn2)cc1

$$$$

  SciTegic03142313312D

 29 31  0  0  0  0            999 V2000
    5.2029   -2.9932    0.0000 O   0  0
    5.2003   -1.4932    0.0000 C   0  0
    3.8990   -0.7455    0.0000 N   0  0
    2.6003   -1.4977    0.0000 C   0  0
    2.6030   -2.9977    0.0000 O   0  0
    1.2990   -0.7500    0.0000 C   0  0
    1.2990    0.7500    0.0000 C   0  0
    0.0000    1.5000    0.0000 C   0  0
   -1.2990    0.7500    0.0000 C   0  0
   -1.2990   -0.7500    0.0000 C   0  0
    0.0000   -1.5000    0.0000 C   0  0
   -0.0031   -3.0008    0.0000 N   0  3
   -1.3032   -3.7490    0.0000 O   0  0
    1.2947   -3.7531    0.0000 O   0  5
    6.4990   -0.7409    0.0000 N   0  0
    7.8003   -1.4887    0.0000 C   0  0
    9.0994   -0.7387    0.0000 C   0  0
   10.3984   -1.4887    0.0000 C   0  0
   10.3985   -2.9887    0.0000 C   0  0
   11.6967   -3.7417    0.0000 S   0  0
   11.6946   -5.2426    0.0000 C   0  0
   12.9911   -5.9971    0.0000 N   0  0
   12.9859   -7.4971    0.0000 C   0  0
   11.6843   -8.2426    0.0000 C   0  0
   11.6791   -9.7426    0.0000 Br  0  0
   10.3878   -7.4882    0.0000 C   0  0
   10.3930   -5.9882    0.0000 N   0  0
    9.0995   -3.7387    0.0000 C   0  0
    7.8004   -2.9887    0.0000 C   0  0
  1  2  2  0
  2  3  1  0
  3  4  1  0
  4  5  2  0
  4  6  1  0
  6  7  2  0
  7  8  1  0
  8  9  2  0
  9 10  1  0
 10 11  2  0
 11  6  1  0
 11 12  1  0
 12 13  2  0
 12 14  1  0
  2 15  1  0
 15 16  1  0
 16 17  2  0
 17 18  1  0
 18 19  2  0
 19 20  1  0
 20 21  1  0
 21 22  2  0
 22 23  1  0
 23 24  2  0
 24 25  1  0
 24 26  1  0
 26 27  2  0
 27 21  1  0
 19 28  1  0
 28 29  2  0
 29 16  1  0
M  CHG  2  12   1  14  -1
M  END
> <assay_chembl_id>
CHEMBL861032

> <assay_description>
Cytotoxicity against human LnCaP cell line by MTT assay

> <document_journal>
J Med Chem

> <molecule_chembl_id>
CHEMBL205487

> <standard_value>
50

> <IC50_uM>
0.05

> <Activity>
Yes

> <Canonical_Smiles>
O=C(NC(=O)c1ccccc1[N+](=O)[O-])Nc1ccc(Sc2ncc(Br)cn2)cc1

$$$$

  SciTegic03142313312D

 28 30  0  0  0  0            999 V2000
    5.2029   -2.9932    0.0000 O   0  0
    5.2003   -1.4932    0.0000 C   0  0
    3.8990   -0.7455    0.0000 N   0  0
    2.6003   -1.4977    0.0000 C   0  0
    2.6030   -2.9977    0.0000 O   0  0
    1.2990   -0.7500    0.0000 C   0  0
    1.2990    0.7500    0.0000 C   0  0
    0.0000    1.5000    0.0000 C   0  0
   -1.2990    0.7500    0.0000 C   0  0
   -1.2990   -0.7500    0.0000 C   0  0
    0.0000   -1.5000    0.0000 C   0  0
   -0.0031   -3.0008    0.0000 N   0  3
   -1.3032   -3.7490    0.0000 O   0  0
    1.2947   -3.7531    0.0000 O   0  5
    6.4990   -0.7409    0.0000 N   0  0
    7.8003   -1.4887    0.0000 C   0  0
    9.0994   -0.7387    0.0000 C   0  0
   10.3984   -1.4887    0.0000 C   0  0
   10.3985   -2.9887    0.0000 C   0  0
   11.6967   -3.7417    0.0000 S   0  0
   11.6946   -5.2426    0.0000 C   0  0
   12.9911   -5.9971    0.0000 N   0  0
   12.9859   -7.4971    0.0000 C   0  0
   11.6843   -8.2426    0.0000 C   0  0
   10.3878   -7.4882    0.0000 C   0  0
   10.3930   -5.9882    0.0000 N   0  0
    9.0995   -3.7387    0.0000 C   0  0
    7.8004   -2.9887    0.0000 C   0  0
  1  2  2  0
  2  3  1  0
  3  4  1  0
  4  5  2  0
  4  6  1  0
  6  7  2  0
  7  8  1  0
  8  9  2  0
  9 10  1  0
 10 11  2  0
 11  6  1  0
 11 12  1  0
 12 13  2  0
 12 14  1  0
  2 15  1  0
 15 16  1  0
 16 17  2  0
 17 18  1  0
 18 19  2  0
 19 20  1  0
 20 21  1  0
 21 22  2  0
 22 23  1  0
 23 24  2  0
 24 25  1  0
 25 26  2  0
 26 21  1  0
 19 27  1  0
 27 28  2  0
 28 16  1  0
M  CHG  2  12   1  14  -1
M  END
> <assay_chembl_id>
CHEMBL861032

> <assay_description>
Cytotoxicity against human LnCaP cell line by MTT assay

> <document_journal>
J Med Chem

> <molecule_chembl_id>
CHEMBL205622

> <standard_value>
500

> <IC50_uM>
0.5

> <Activity>
Yes

> <Canonical_Smiles>
O=C(NC(=O)c1ccccc1[N+](=O)[O-])Nc1ccc(Sc2ncccn2)cc1

$$$$

  SciTegic03142313312D

 24 26  0  0  1  0            999 V2000
    2.5981   -1.5000    0.0000 C   0  0
    1.2990   -0.7500    0.0000 C   0  0
    1.2990    0.7500    0.0000 C   0  0
    0.0000    1.5000    0.0000 C   0  0
   -1.2990    0.7500    0.0000 C   0  0
   -1.2990   -0.7500    0.0000 C   0  0
    0.0000   -1.5000    0.0000 C   0  0
    0.0000   -3.0000    0.0000 C   0  0
   -2.5981   -1.5000    0.0000 C   0  0
   -3.8971   -0.7500    0.0000 N   0  0
   -5.1984   -1.4978    0.0000 C   0  0
   -5.2010   -2.9978    0.0000 O   0  0
   -6.4971   -0.7455    0.0000 N   0  0
   -7.7977   -1.4928    0.0000 C   0  0
   -6.4945    0.7545    0.0000 C   0  0
   -3.8971    0.7500    0.0000 C   0  0
   -2.5981    1.5000    0.0000 C   0  0  2  0  0  0
   -2.5981    3.0007    0.0000 C   0  0
   -1.3002    3.7529    0.0000 C   0  0
   -1.3026    5.2529    0.0000 C   0  0
   -2.6029    6.0009    0.0000 C   0  0
   -3.9007    5.2488    0.0000 C   0  0
   -5.2009    5.9967    0.0000 O   0  0
   -3.8983    3.7488    0.0000 C   0  0
  1  2  1  0
  2  3  2  0
  3  4  1  0
  4  5  2  0
  5  6  1  0
  6  7  2  0
  7  2  1  0
  7  8  1  0
  6  9  1  0
  9 10  1  0
 10 11  1  0
 11 12  2  0
 11 13  1  0
 13 14  1  0
 13 15  1  0
 10 16  1  0
 16 17  1  0
 17  5  1  0
 17 18  1  6
 18 19  2  0
 19 20  1  0
 20 21  2  0
 21 22  1  0
 22 23  1  0
 22 24  2  0
 24 18  1  0
M  END
> <assay_chembl_id>
CHEMBL860819

> <assay_description>
Antiproliferative activity against human LNCaP cells

> <document_journal>
Bioorg Med Chem Lett

> <molecule_chembl_id>
CHEMBL205786

> <standard_value>
807

> <IC50_uM>
0.807

> <Activity>
Yes

> <Canonical_Smiles>
Cc1ccc2c(c1C)CN(C(=O)N(C)C)C[C@@H]2c1cccc(O)c1

$$$$

  SciTegic03142313312D

 26 29  0  0  1  0            999 V2000
    3.8983   -0.7459    0.0000 C   0  0
    2.6003   -1.4977    0.0000 O   0  0
    1.2990   -0.7500    0.0000 C   0  0
    1.2990    0.7500    0.0000 C   0  0
    0.0000    1.5000    0.0000 C   0  0
   -1.2990    0.7500    0.0000 C   0  0
   -1.2990   -0.7500    0.0000 C   0  0
    0.0000   -1.5000    0.0000 C   0  0
    0.0000   -3.0000    0.0000 O   0  0
   -2.5981    1.5000    0.0000 C   0  0
   -2.5981    3.0000    0.0000 C   0  0
   -1.2991    3.7500    0.0000 C   0  0  2  0  0  0
    0.0000    3.0000    0.0000 C   0  0  2  0  0  0
    1.2990    3.7500    0.0000 C   0  0
    1.2990    5.2500    0.0000 C   0  0
    0.0000    6.0000    0.0000 C   0  0  2  0  0  0
    1.2211    6.8711    0.0000 C   0  0
   -0.2851    7.4666    0.0000 C   0  0  1  0  0  0
    0.7337    8.5650    0.0000 O   0  0
    2.1972    8.2322    0.0000 C   0  0
    2.6400    6.7990    0.0000 O   0  0
    3.2178    9.3325    0.0000 C   0  0
    4.6805    8.9999    0.0000 N   0  0
   -1.7759    7.6329    0.0000 C   0  0
   -2.3947    6.2665    0.0000 C   0  0
   -1.2991    5.2500    0.0000 C   0  0  1  0  0  0
  1  2  1  0
  2  3  1  0
  3  4  2  0
  4  5  1  0
  5  6  2  0
  6  7  1  0
  7  8  2  0
  8  3  1  0
  8  9  1  0
  6 10  1  0
 10 11  1  0
 12 11  1  1
 12 13  1  0
 13  5  1  0
 13 14  1  6
 14 15  1  0
 15 16  1  0
 16 17  1  6
 16 18  1  0
 18 19  1  6
 19 20  1  0
 20 21  2  0
 20 22  1  0
 22 23  1  0
 18 24  1  0
 24 25  1  0
 26 25  1  6
 26 12  1  0
 26 16  1  0
M  END
> <assay_chembl_id>
CHEMBL866054

> <assay_description>
Antiproliferative activity against human LNCaP cell line

> <document_journal>
Bioorg Med Chem Lett

> <molecule_chembl_id>
CHEMBL1627803

> <standard_value>
900

> <IC50_uM>
0.9

> <Activity>
Yes

> <Canonical_Smiles>
COc1cc2c(cc1O)CC[C@@H]1[C@@H]2CC[C@]2(C)[C@@H](OC(=O)CN)CC[C@@H]12

$$$$

  SciTegic03142313312D

 49 54  0  0  1  0            999 V2000
    3.8983   -0.7459    0.0000 C   0  0
    2.6003   -1.4977    0.0000 O   0  0
    1.2990   -0.7500    0.0000 C   0  0
    1.2990    0.7500    0.0000 C   0  0
    0.0000    1.5000    0.0000 C   0  0
   -1.2990    0.7500    0.0000 C   0  0
   -1.2990   -0.7500    0.0000 C   0  0
    0.0000   -1.5000    0.0000 C   0  0
    0.0000   -3.0000    0.0000 O   0  0
   -2.5981    1.5000    0.0000 C   0  0
   -2.5981    3.0000    0.0000 C   0  0
   -1.2991    3.7500    0.0000 C   0  0  2  0  0  0
    0.0000    3.0000    0.0000 C   0  0  2  0  0  0
    1.2990    3.7500    0.0000 C   0  0
    1.2990    5.2500    0.0000 C   0  0
    0.0000    6.0000    0.0000 C   0  0  2  0  0  0
    1.2211    6.8711    0.0000 C   0  0
   -0.2851    7.4666    0.0000 C   0  0  1  0  0  0
    0.7337    8.5650    0.0000 O   0  0
    2.1972    8.2322    0.0000 C   0  0
    2.6400    6.7990    0.0000 O   0  0
    3.2178    9.3325    0.0000 C   0  0
    4.6813    8.9997    0.0000 N   0  0
    5.7020   10.1000    0.0000 C   0  0
    5.2592   11.5332    0.0000 O   0  0
    7.1654    9.7672    0.0000 C   0  0
    8.1861   10.8675    0.0000 C   0  0
    9.6495   10.5347    0.0000 C   0  0
   10.6702   11.6350    0.0000 C   0  0
   12.1336   11.3022    0.0000 C   0  0
   13.1543   12.4025    0.0000 N   0  0
   14.6178   12.0696    0.0000 C   0  0
   15.0606   10.6365    0.0000 O   0  0
   15.6384   13.1700    0.0000 C   0  0
   17.1019   12.8371    0.0000 C   0  0
   18.1226   13.9375    0.0000 C   0  0
   19.5860   13.6046    0.0000 C   0  0
   20.6067   14.7050    0.0000 C   0  0  2  0  0  0
   20.2987   16.1600    0.0000 S   0  0
   21.6072   16.8934    0.0000 C   0  0
   22.7090   15.8755    0.0000 C   0  0  2  0  0  0
   24.1968   15.7006    0.0000 N   0  0
   24.4899   14.2295    0.0000 C   0  0
   25.8523   13.6019    0.0000 O   0  0
   23.1814   13.4961    0.0000 N   0  0
   22.0815   14.5131    0.0000 C   0  0  2  0  0  0
   -1.7759    7.6329    0.0000 C   0  0
   -2.3947    6.2665    0.0000 C   0  0
   -1.2991    5.2500    0.0000 C   0  0  1  0  0  0
  1  2  1  0
  2  3  1  0
  3  4  2  0
  4  5  1  0
  5  6  2  0
  6  7  1  0
  7  8  2  0
  8  3  1  0
  8  9  1  0
  6 10  1  0
 10 11  1  0
 12 11  1  1
 12 13  1  0
 13  5  1  0
 13 14  1  6
 14 15  1  0
 15 16  1  0
 16 17  1  6
 16 18  1  0
 18 19  1  6
 19 20  1  0
 20 21  2  0
 20 22  1  0
 22 23  1  0
 23 24  1  0
 24 25  2  0
 24 26  1  0
 26 27  1  0
 27 28  1  0
 28 29  1  0
 29 30  1  0
 30 31  1  0
 31 32  1  0
 32 33  2  0
 32 34  1  0
 34 35  1  0
 35 36  1  0
 36 37  1  0
 38 37  1  6
 38 39  1  0
 39 40  1  0
 41 40  1  6
 41 42  1  0
 42 43  1  0
 43 44  2  0
 43 45  1  0
 46 45  1  6
 46 41  1  0
 46 38  1  0
 18 47  1  0
 47 48  1  0
 49 48  1  6
 49 12  1  0
 49 16  1  0
M  END
> <assay_chembl_id>
CHEMBL866054

> <assay_description>
Antiproliferative activity against human LNCaP cell line

> <document_journal>
Bioorg Med Chem Lett

> <molecule_chembl_id>
CHEMBL1628023

> <standard_value>
600

> <IC50_uM>
0.6

> <Activity>
Yes

> <Canonical_Smiles>
COc1cc2c(cc1O)CC[C@@H]1[C@@H]2CC[C@]2(C)[C@@H](OC(=O)CNC(=O)CCCCCNC(=O)CCCC[C@@H]3SC[C@@H]4NC(=O)N[C@@H]43)CC[C@@H]12

$$$$

  SciTegic03142313312D

 41 44  0  0  1  0            999 V2000
    3.8983   -0.7459    0.0000 C   0  0
    2.6003   -1.4977    0.0000 O   0  0
    1.2990   -0.7500    0.0000 C   0  0
    1.2990    0.7500    0.0000 C   0  0
    0.0000    1.5000    0.0000 C   0  0
   -1.2990    0.7500    0.0000 C   0  0
   -1.2990   -0.7500    0.0000 C   0  0
    0.0000   -1.5000    0.0000 C   0  0
    0.0000   -3.0000    0.0000 O   0  0
   -2.5981    1.5000    0.0000 C   0  0
   -2.5981    3.0000    0.0000 C   0  0
   -1.2991    3.7500    0.0000 C   0  0  2  0  0  0
    0.0000    3.0000    0.0000 C   0  0  2  0  0  0
    1.2990    3.7500    0.0000 C   0  0
    1.2990    5.2500    0.0000 C   0  0
    0.0000    6.0000    0.0000 C   0  0  2  0  0  0
    1.2211    6.8711    0.0000 C   0  0
   -0.2851    7.4666    0.0000 C   0  0  1  0  0  0
    0.7337    8.5650    0.0000 O   0  0
    2.1972    8.2322    0.0000 C   0  0
    2.6400    6.7990    0.0000 O   0  0
    3.2178    9.3325    0.0000 C   0  0
    4.6813    8.9997    0.0000 N   0  0
    5.7020   10.1000    0.0000 C   0  0
    5.2592   11.5332    0.0000 O   0  0
    7.1654    9.7672    0.0000 C   0  0
    8.1861   10.8675    0.0000 C   0  0
    9.6495   10.5347    0.0000 C   0  0
   10.6702   11.6350    0.0000 C   0  0
   12.1336   11.3022    0.0000 C   0  0
   13.1543   12.4025    0.0000 N   0  0
   14.6178   12.0696    0.0000 C   0  0
   15.0606   10.6365    0.0000 O   0  0
   15.6384   13.1700    0.0000 O   0  0
   17.1019   12.8371    0.0000 C   0  0
   18.1220   13.9369    0.0000 C   0  0
   18.5644   12.5038    0.0000 C   0  0
   17.5447   11.4040    0.0000 C   0  0
   -1.7759    7.6329    0.0000 C   0  0
   -2.3947    6.2665    0.0000 C   0  0
   -1.2991    5.2500    0.0000 C   0  0  1  0  0  0
  1  2  1  0
  2  3  1  0
  3  4  2  0
  4  5  1  0
  5  6  2  0
  6  7  1  0
  7  8  2  0
  8  3  1  0
  8  9  1  0
  6 10  1  0
 10 11  1  0
 12 11  1  1
 12 13  1  0
 13  5  1  0
 13 14  1  6
 14 15  1  0
 15 16  1  0
 16 17  1  6
 16 18  1  0
 18 19  1  6
 19 20  1  0
 20 21  2  0
 20 22  1  0
 22 23  1  0
 23 24  1  0
 24 25  2  0
 24 26  1  0
 26 27  1  0
 27 28  1  0
 28 29  1  0
 29 30  1  0
 30 31  1  0
 31 32  1  0
 32 33  2  0
 32 34  1  0
 34 35  1  0
 35 36  1  0
 35 37  1  0
 35 38  1  0
 18 39  1  0
 39 40  1  0
 41 40  1  6
 41 12  1  0
 41 16  1  0
M  END
> <assay_chembl_id>
CHEMBL866054

> <assay_description>
Antiproliferative activity against human LNCaP cell line

> <document_journal>
Bioorg Med Chem Lett

> <molecule_chembl_id>
CHEMBL1628016

> <standard_value>
600

> <IC50_uM>
0.6

> <Activity>
Yes

> <Canonical_Smiles>
COc1cc2c(cc1O)CC[C@@H]1[C@@H]2CC[C@]2(C)[C@@H](OC(=O)CNC(=O)CCCCCNC(=O)OC(C)(C)C)CC[C@@H]12

$$$$

  SciTegic03142313312D

 34 37  0  0  1  0            999 V2000
    3.8983   -0.7459    0.0000 C   0  0
    2.6003   -1.4977    0.0000 O   0  0
    1.2990   -0.7500    0.0000 C   0  0
    1.2990    0.7500    0.0000 C   0  0
    0.0000    1.5000    0.0000 C   0  0
   -1.2990    0.7500    0.0000 C   0  0
   -1.2990   -0.7500    0.0000 C   0  0
    0.0000   -1.5000    0.0000 C   0  0
    0.0000   -3.0000    0.0000 O   0  0
   -2.5981    1.5000    0.0000 C   0  0
   -2.5981    3.0000    0.0000 C   0  0
   -1.2991    3.7500    0.0000 C   0  0  2  0  0  0
    0.0000    3.0000    0.0000 C   0  0  2  0  0  0
    1.2990    3.7500    0.0000 C   0  0
    1.2990    5.2500    0.0000 C   0  0
    0.0000    6.0000    0.0000 C   0  0  2  0  0  0
    1.2211    6.8711    0.0000 C   0  0
   -0.2851    7.4666    0.0000 C   0  0  1  0  0  0
    0.7337    8.5650    0.0000 O   0  0
    2.1972    8.2322    0.0000 C   0  0
    2.6400    6.7990    0.0000 O   0  0
    3.2178    9.3325    0.0000 C   0  0
    4.6813    8.9997    0.0000 N   0  0
    5.7020   10.1000    0.0000 C   0  0
    5.2592   11.5332    0.0000 O   0  0
    7.1654    9.7672    0.0000 C   0  0
    8.1861   10.8675    0.0000 C   0  0
    9.6495   10.5347    0.0000 C   0  0
   10.6702   11.6350    0.0000 C   0  0
   12.1336   11.3022    0.0000 C   0  0
   13.1538   12.4019    0.0000 N   0  0
   -1.7759    7.6329    0.0000 C   0  0
   -2.3947    6.2665    0.0000 C   0  0
   -1.2991    5.2500    0.0000 C   0  0  1  0  0  0
  1  2  1  0
  2  3  1  0
  3  4  2  0
  4  5  1  0
  5  6  2  0
  6  7  1  0
  7  8  2  0
  8  3  1  0
  8  9  1  0
  6 10  1  0
 10 11  1  0
 12 11  1  1
 12 13  1  0
 13  5  1  0
 13 14  1  6
 14 15  1  0
 15 16  1  0
 16 17  1  6
 16 18  1  0
 18 19  1  6
 19 20  1  0
 20 21  2  0
 20 22  1  0
 22 23  1  0
 23 24  1  0
 24 25  2  0
 24 26  1  0
 26 27  1  0
 27 28  1  0
 28 29  1  0
 29 30  1  0
 30 31  1  0
 18 32  1  0
 32 33  1  0
 34 33  1  6
 34 12  1  0
 34 16  1  0
M  END
> <assay_chembl_id>
CHEMBL866054

> <assay_description>
Antiproliferative activity against human LNCaP cell line

> <document_journal>
Bioorg Med Chem Lett

> <molecule_chembl_id>
CHEMBL1628060

> <standard_value>
600

> <IC50_uM>
0.6

> <Activity>
Yes

> <Canonical_Smiles>
COc1cc2c(cc1O)CC[C@@H]1[C@@H]2CC[C@]2(C)[C@@H](OC(=O)CNC(=O)CCCCCN)CC[C@@H]12

$$$$

  SciTegic03142313312D

 22 25  0  0  1  0            999 V2000
    3.8983   -0.7459    0.0000 C   0  0
    2.6003   -1.4977    0.0000 O   0  0
    1.2990   -0.7500    0.0000 C   0  0
    1.2990    0.7500    0.0000 C   0  0
    0.0000    1.5000    0.0000 C   0  0
   -1.2990    0.7500    0.0000 C   0  0
   -1.2990   -0.7500    0.0000 C   0  0
    0.0000   -1.5000    0.0000 C   0  0
    0.0000   -3.0000    0.0000 O   0  0
   -2.5981    1.5000    0.0000 C   0  0
   -2.5981    3.0000    0.0000 C   0  0
   -1.2991    3.7500    0.0000 C   0  0  2  0  0  0
    0.0000    3.0000    0.0000 C   0  0  2  0  0  0
    1.2990    3.7500    0.0000 C   0  0
    1.2990    5.2500    0.0000 C   0  0
    0.0000    6.0000    0.0000 C   0  0  2  0  0  0
    1.2211    6.8711    0.0000 C   0  0
   -0.2851    7.4666    0.0000 C   0  0  1  0  0  0
    0.7318    8.5693    0.0000 O   0  0
   -1.7759    7.6329    0.0000 C   0  0
   -2.3947    6.2665    0.0000 C   0  0
   -1.2991    5.2500    0.0000 C   0  0  1  0  0  0
  1  2  1  0
  2  3  1  0
  3  4  2  0
  4  5  1  0
  5  6  2  0
  6  7  1  0
  7  8  2  0
  8  3  1  0
  8  9  1  0
  6 10  1  0
 10 11  1  0
 12 11  1  1
 12 13  1  0
 13  5  1  0
 13 14  1  6
 14 15  1  0
 15 16  1  0
 16 17  1  6
 16 18  1  0
 18 19  1  6
 18 20  1  0
 20 21  1  0
 22 21  1  6
 22 12  1  0
 22 16  1  0
M  END
> <assay_chembl_id>
CHEMBL866054

> <assay_description>
Antiproliferative activity against human LNCaP cell line

> <document_journal>
Bioorg Med Chem Lett

> <molecule_chembl_id>
CHEMBL299613

> <standard_value>
500

> <IC50_uM>
0.5

> <Activity>
Yes

> <Canonical_Smiles>
COc1cc2c(cc1O)CC[C@@H]1[C@@H]2CC[C@]2(C)[C@@H](O)CC[C@@H]12

$$$$

  SciTegic03142313312D

 33 34  0  0  0  0            999 V2000
    3.8983   -0.7459    0.0000 C   0  0
    2.6003   -1.4977    0.0000 O   0  0
    1.2990   -0.7500    0.0000 C   0  0
    1.2990    0.7500    0.0000 C   0  0
    0.0000    1.5000    0.0000 C   0  0
   -1.2990    0.7500    0.0000 C   0  0
   -2.6003    1.4977    0.0000 C   0  0
   -3.8990    0.7455    0.0000 C   0  0
   -5.2003    1.4932    0.0000 C   0  0
   -5.2029    2.9932    0.0000 O   0  0
   -6.4990    0.7409    0.0000 C   0  0
   -6.4995   -0.7599    0.0000 C   0  0
   -7.7990   -1.5107    0.0000 C   0  0
   -7.7994   -3.0116    0.0000 C   0  0
   -9.0982   -3.7620    0.0000 O   0  0
   -7.8003    1.4887    0.0000 C   0  0
   -7.8029    2.9887    0.0000 O   0  0
   -9.0990    0.7364    0.0000 C   0  0
  -10.4003    1.4841    0.0000 C   0  0
  -11.6990    0.7318    0.0000 C   0  0
  -13.0007    1.4773    0.0000 C   0  0
  -14.2971    0.7228    0.0000 C   0  0
  -14.2919   -0.7772    0.0000 C   0  0
  -15.5906   -1.5295    0.0000 O   0  0
  -16.8912   -0.7821    0.0000 C   0  0
  -12.9903   -1.5227    0.0000 C   0  0
  -12.9820   -3.0235    0.0000 O   0  0
  -11.6793   -3.7672    0.0000 C   0  0
  -11.6938   -0.7682    0.0000 C   0  0
   -1.2990   -0.7500    0.0000 C   0  0
    0.0000   -1.5000    0.0000 C   0  0
   -0.0031   -3.0008    0.0000 O   0  0
   -1.3032   -3.7490    0.0000 C   0  0
  1  2  1  0
  2  3  1  0
  3  4  2  0
  4  5  1  0
  5  6  2  0
  6  7  1  0
  7  8  2  0
  8  9  1  0
  9 10  2  0
  9 11  1  0
 11 12  1  0
 12 13  2  0
 13 14  1  0
 14 15  1  0
 11 16  2  0
 16 17  1  0
 16 18  1  0
 18 19  2  0
 19 20  1  0
 20 21  2  0
 21 22  1  0
 22 23  2  0
 23 24  1  0
 24 25  1  0
 23 26  1  0
 26 27  1  0
 27 28  1  0
 26 29  2  0
 29 20  1  0
  6 30  1  0
 30 31  2  0
 31  3  1  0
 31 32  1  0
 32 33  1  0
M  END
> <assay_chembl_id>
CHEMBL866631

> <assay_description>
Cytotoxicity against human LNCaP cell line

> <document_journal>
J Med Chem

> <molecule_chembl_id>
CHEMBL210241

> <standard_value>
200

> <IC50_uM>
0.2

> <Activity>
Yes

> <Canonical_Smiles>
COc1ccc(/C=C/C(=O)C(/C=C/CO)=C(O)/C=C/c2ccc(OC)c(OC)c2)cc1OC

$$$$

  SciTegic03142313312D

 33 34  0  0  0  0            999 V2000
    3.8983   -0.7459    0.0000 C   0  0
    2.6003   -1.4977    0.0000 O   0  0
    1.2990   -0.7500    0.0000 C   0  0
    1.2990    0.7500    0.0000 C   0  0
    0.0000    1.5000    0.0000 C   0  0
   -1.2990    0.7500    0.0000 C   0  0
   -2.6003    1.4977    0.0000 C   0  0
   -3.8990    0.7455    0.0000 C   0  0
   -5.2003    1.4932    0.0000 C   0  0
   -5.2029    2.9932    0.0000 O   0  0
   -6.4990    0.7409    0.0000 C   0  0
   -6.4995   -0.7599    0.0000 C   0  0
   -7.7990   -1.5107    0.0000 C   0  0
   -7.7994   -3.0116    0.0000 C   0  0
   -7.7999   -4.5116    0.0000 N   0  0
   -7.8003    1.4887    0.0000 C   0  0
   -7.8029    2.9887    0.0000 O   0  0
   -9.0990    0.7364    0.0000 C   0  0
  -10.4003    1.4841    0.0000 C   0  0
  -11.6990    0.7318    0.0000 C   0  0
  -13.0007    1.4773    0.0000 C   0  0
  -14.2971    0.7228    0.0000 C   0  0
  -14.2919   -0.7772    0.0000 C   0  0
  -15.5906   -1.5295    0.0000 O   0  0
  -16.8912   -0.7821    0.0000 C   0  0
  -12.9903   -1.5227    0.0000 C   0  0
  -12.9820   -3.0235    0.0000 O   0  0
  -11.6793   -3.7672    0.0000 C   0  0
  -11.6938   -0.7682    0.0000 C   0  0
   -1.2990   -0.7500    0.0000 C   0  0
    0.0000   -1.5000    0.0000 C   0  0
   -0.0031   -3.0008    0.0000 O   0  0
   -1.3032   -3.7490    0.0000 C   0  0
  1  2  1  0
  2  3  1  0
  3  4  2  0
  4  5  1  0
  5  6  2  0
  6  7  1  0
  7  8  2  0
  8  9  1  0
  9 10  2  0
  9 11  1  0
 11 12  1  0
 12 13  2  0
 13 14  1  0
 14 15  3  0
 11 16  2  0
 16 17  1  0
 16 18  1  0
 18 19  2  0
 19 20  1  0
 20 21  2  0
 21 22  1  0
 22 23  2  0
 23 24  1  0
 24 25  1  0
 23 26  1  0
 26 27  1  0
 27 28  1  0
 26 29  2  0
 29 20  1  0
  6 30  1  0
 30 31  2  0
 31  3  1  0
 31 32  1  0
 32 33  1  0
M  END
> <assay_chembl_id>
CHEMBL866631

> <assay_description>
Cytotoxicity against human LNCaP cell line

> <document_journal>
J Med Chem

> <molecule_chembl_id>
CHEMBL210880

> <standard_value>
200

> <IC50_uM>
0.2

> <Activity>
Yes

> <Canonical_Smiles>
COc1ccc(/C=C/C(=O)C(/C=C/C#N)=C(O)/C=C/c2ccc(OC)c(OC)c2)cc1OC

$$$$

  SciTegic03142313312D

 36 37  0  0  0  0            999 V2000
   -0.0088  -12.0119    0.0000 C   0  0
   -0.0083  -10.5119    0.0000 C   0  0
    1.2912   -9.7611    0.0000 N   0  0
    1.2917   -8.2603    0.0000 C   0  0
   -0.0074   -7.5103    0.0000 O   0  0
    2.5912   -7.5095    0.0000 C   0  0
    2.5917   -6.0086    0.0000 C   0  0
    3.8912   -5.2578    0.0000 C   0  0
    3.8933   -3.7570    0.0000 C   0  0
    5.1937   -3.0093    0.0000 O   0  0
    2.5951   -3.0039    0.0000 C   0  0
    2.5973   -1.5031    0.0000 C   0  0
    1.2990   -0.7500    0.0000 C   0  0
    1.2990    0.7500    0.0000 C   0  0
    0.0000    1.5000    0.0000 C   0  0
   -1.2990    0.7500    0.0000 C   0  0
   -2.5973    1.5031    0.0000 O   0  0
   -2.5951    3.0031    0.0000 C   0  0
   -1.2990   -0.7500    0.0000 C   0  0
   -2.5972   -1.5031    0.0000 O   0  0
   -2.5951   -3.0031    0.0000 C   0  0
    0.0000   -1.5000    0.0000 C   0  0
    5.1894   -6.0109    0.0000 C   0  0
    6.4897   -5.2632    0.0000 O   0  0
    5.1873   -7.5117    0.0000 C   0  0
    6.4855   -8.2648    0.0000 C   0  0
    6.4833   -9.7656    0.0000 C   0  0
    7.7798  -10.5202    0.0000 C   0  0
    7.7746  -12.0202    0.0000 C   0  0
    6.4729  -12.7657    0.0000 C   0  0
    6.4708  -14.2665    0.0000 O   0  0
    7.7684  -15.0192    0.0000 C   0  0
    5.1765  -12.0112    0.0000 C   0  0
    3.8726  -12.7545    0.0000 O   0  0
    2.5773  -11.9981    0.0000 C   0  0
    5.1817  -10.5112    0.0000 C   0  0
  1  2  1  0
  2  3  1  0
  3  4  1  0
  4  5  2  0
  4  6  1  0
  6  7  2  0
  7  8  1  0
  8  9  1  0
  9 10  2  0
  9 11  1  0
 11 12  2  0
 12 13  1  0
 13 14  2  0
 14 15  1  0
 15 16  2  0
 16 17  1  0
 17 18  1  0
 16 19  1  0
 19 20  1  0
 20 21  1  0
 19 22  2  0
 22 13  1  0
  8 23  2  0
 23 24  1  0
 23 25  1  0
 25 26  2  0
 26 27  1  0
 27 28  2  0
 28 29  1  0
 29 30  2  0
 30 31  1  0
 31 32  1  0
 30 33  1  0
 33 34  1  0
 34 35  1  0
 33 36  2  0
 36 27  1  0
M  END
> <assay_chembl_id>
CHEMBL866631

> <assay_description>
Cytotoxicity against human LNCaP cell line

> <document_journal>
J Med Chem

> <molecule_chembl_id>
CHEMBL210608

> <standard_value>
600

> <IC50_uM>
0.6

> <Activity>
Yes

> <Canonical_Smiles>
CCNC(=O)/C=C/C(C(=O)/C=C/c1ccc(OC)c(OC)c1)=C(O)\C=C\c1ccc(OC)c(OC)c1

$$$$

  SciTegic03142313312D

 35 36  0  0  0  0            999 V2000
   -0.0076  -10.5115    0.0000 C   0  0
    1.2912   -9.7611    0.0000 O   0  0
    1.2917   -8.2603    0.0000 C   0  0
   -0.0074   -7.5103    0.0000 O   0  0
    2.5912   -7.5095    0.0000 C   0  0
    2.5917   -6.0086    0.0000 C   0  0
    3.8912   -5.2578    0.0000 C   0  0
    3.8933   -3.7570    0.0000 C   0  0
    5.1937   -3.0093    0.0000 O   0  0
    2.5951   -3.0039    0.0000 C   0  0
    2.5973   -1.5031    0.0000 C   0  0
    1.2990   -0.7500    0.0000 C   0  0
    1.2990    0.7500    0.0000 C   0  0
    0.0000    1.5000    0.0000 C   0  0
   -1.2990    0.7500    0.0000 C   0  0
   -2.5973    1.5031    0.0000 O   0  0
   -2.5951    3.0031    0.0000 C   0  0
   -1.2990   -0.7500    0.0000 C   0  0
   -2.5972   -1.5031    0.0000 O   0  0
   -2.5951   -3.0031    0.0000 C   0  0
    0.0000   -1.5000    0.0000 C   0  0
    5.1894   -6.0109    0.0000 C   0  0
    6.4897   -5.2632    0.0000 O   0  0
    5.1873   -7.5117    0.0000 C   0  0
    6.4855   -8.2648    0.0000 C   0  0
    6.4833   -9.7656    0.0000 C   0  0
    7.7798  -10.5202    0.0000 C   0  0
    7.7746  -12.0202    0.0000 C   0  0
    6.4729  -12.7657    0.0000 C   0  0
    6.4708  -14.2665    0.0000 O   0  0
    7.7684  -15.0192    0.0000 C   0  0
    5.1765  -12.0112    0.0000 C   0  0
    3.8726  -12.7545    0.0000 O   0  0
    2.5773  -11.9981    0.0000 C   0  0
    5.1817  -10.5112    0.0000 C   0  0
  1  2  1  0
  2  3  1  0
  3  4  1  0
  3  5  2  0
  5  6  1  0
  6  7  2  0
  7  8  1  0
  8  9  2  0
  8 10  1  0
 10 11  2  0
 11 12  1  0
 12 13  2  0
 13 14  1  0
 14 15  2  0
 15 16  1  0
 16 17  1  0
 15 18  1  0
 18 19  1  0
 19 20  1  0
 18 21  2  0
 21 12  1  0
  7 22  1  0
 22 23  2  0
 22 24  1  0
 24 25  2  0
 25 26  1  0
 26 27  2  0
 27 28  1  0
 28 29  2  0
 29 30  1  0
 30 31  1  0
 29 32  1  0
 32 33  1  0
 33 34  1  0
 32 35  2  0
 35 26  1  0
M  END
> <assay_chembl_id>
CHEMBL866631

> <assay_description>
Cytotoxicity against human LNCaP cell line

> <document_journal>
J Med Chem

> <molecule_chembl_id>
CHEMBL379614

> <standard_value>
400

> <IC50_uM>
0.4

> <Activity>
Yes

> <Canonical_Smiles>
CO/C(O)=C/C=C(C(=O)/C=C/c1ccc(OC)c(OC)c1)C(=O)/C=C/c1ccc(OC)c(OC)c1

$$$$

  SciTegic03142313312D

 36 37  0  0  0  0            999 V2000
   -0.0088  -12.0119    0.0000 C   0  0
   -0.0083  -10.5119    0.0000 C   0  0
    1.2912   -9.7611    0.0000 O   0  0
    1.2917   -8.2603    0.0000 C   0  0
   -0.0074   -7.5103    0.0000 O   0  0
    2.5912   -7.5095    0.0000 C   0  0
    2.5917   -6.0086    0.0000 C   0  0
    3.8912   -5.2578    0.0000 C   0  0
    3.8933   -3.7570    0.0000 C   0  0
    5.1937   -3.0093    0.0000 O   0  0
    2.5951   -3.0039    0.0000 C   0  0
    2.5973   -1.5031    0.0000 C   0  0
    1.2990   -0.7500    0.0000 C   0  0
    1.2990    0.7500    0.0000 C   0  0
    0.0000    1.5000    0.0000 C   0  0
   -1.2990    0.7500    0.0000 C   0  0
   -2.5973    1.5031    0.0000 O   0  0
   -2.5951    3.0031    0.0000 C   0  0
   -1.2990   -0.7500    0.0000 C   0  0
   -2.5972   -1.5031    0.0000 O   0  0
   -2.5951   -3.0031    0.0000 C   0  0
    0.0000   -1.5000    0.0000 C   0  0
    5.1894   -6.0109    0.0000 C   0  0
    6.4897   -5.2632    0.0000 O   0  0
    5.1873   -7.5117    0.0000 C   0  0
    6.4855   -8.2648    0.0000 C   0  0
    6.4833   -9.7656    0.0000 C   0  0
    7.7798  -10.5202    0.0000 C   0  0
    7.7746  -12.0202    0.0000 C   0  0
    6.4729  -12.7657    0.0000 C   0  0
    6.4708  -14.2665    0.0000 O   0  0
    7.7684  -15.0192    0.0000 C   0  0
    5.1765  -12.0112    0.0000 C   0  0
    3.8726  -12.7545    0.0000 O   0  0
    2.5773  -11.9981    0.0000 C   0  0
    5.1817  -10.5112    0.0000 C   0  0
  1  2  1  0
  2  3  1  0
  3  4  1  0
  4  5  1  0
  4  6  2  0
  6  7  1  0
  7  8  2  0
  8  9  1  0
  9 10  2  0
  9 11  1  0
 11 12  2  0
 12 13  1  0
 13 14  2  0
 14 15  1  0
 15 16  2  0
 16 17  1  0
 17 18  1  0
 16 19  1  0
 19 20  1  0
 20 21  1  0
 19 22  2  0
 22 13  1  0
  8 23  1  0
 23 24  2  0
 23 25  1  0
 25 26  2  0
 26 27  1  0
 27 28  2  0
 28 29  1  0
 29 30  2  0
 30 31  1  0
 31 32  1  0
 30 33  1  0
 33 34  1  0
 34 35  1  0
 33 36  2  0
 36 27  1  0
M  END
> <assay_chembl_id>
CHEMBL866631

> <assay_description>
Cytotoxicity against human LNCaP cell line

> <document_journal>
J Med Chem

> <molecule_chembl_id>
CHEMBL212693

> <standard_value>
200

> <IC50_uM>
0.2

> <Activity>
Yes

> <Canonical_Smiles>
CCO/C(O)=C/C=C(C(=O)/C=C/c1ccc(OC)c(OC)c1)C(=O)/C=C/c1ccc(OC)c(OC)c1

$$$$

  SciTegic03142313312D

 26 27  0  0  0  0            999 V2000
    2.5951   -3.0031    0.0000 C   0  0
    2.5973   -1.5031    0.0000 O   0  0
    1.2990   -0.7500    0.0000 C   0  0
    1.2990    0.7500    0.0000 C   0  0
    0.0000    1.5000    0.0000 C   0  0
   -1.2990    0.7500    0.0000 C   0  0
   -2.5973    1.5031    0.0000 C   0  0
   -2.5951    3.0039    0.0000 C   0  0
   -3.8933    3.7570    0.0000 C   0  0
   -5.1937    3.0092    0.0000 O   0  0
   -3.8912    5.2578    0.0000 C   0  0
   -5.1894    6.0109    0.0000 C   0  0
   -5.1873    7.5117    0.0000 C   0  0
   -3.8856    8.2573    0.0000 C   0  0
   -3.8805    9.7573    0.0000 C   0  0
   -5.1769   10.5118    0.0000 C   0  0
   -5.1748   12.0126    0.0000 O   0  0
   -6.4723   12.7652    0.0000 C   0  0
   -6.4785    9.7663    0.0000 C   0  0
   -6.4837    8.2663    0.0000 C   0  0
   -7.7876    7.5231    0.0000 O   0  0
   -9.0829    8.2795    0.0000 C   0  0
   -1.2990   -0.7500    0.0000 C   0  0
   -2.5972   -1.5031    0.0000 O   0  0
   -2.5951   -3.0031    0.0000 C   0  0
    0.0000   -1.5000    0.0000 C   0  0
  1  2  1  0
  2  3  1  0
  3  4  2  0
  4  5  1  0
  5  6  2  0
  6  7  1  0
  7  8  2  0
  8  9  1  0
  9 10  2  0
  9 11  1  0
 11 12  2  0
 12 13  1  0
 13 14  2  0
 14 15  1  0
 15 16  2  0
 16 17  1  0
 17 18  1  0
 16 19  1  0
 19 20  2  0
 20 13  1  0
 20 21  1  0
 21 22  1  0
  6 23  1  0
 23 24  1  0
 24 25  1  0
 23 26  2  0
 26  3  1  0
M  END
> <assay_chembl_id>
CHEMBL866631

> <assay_description>
Cytotoxicity against human LNCaP cell line

> <document_journal>
J Med Chem

> <molecule_chembl_id>
CHEMBL426862

> <standard_value>
21800

> <IC50_uM>
21.8

> <Activity>
No

> <Canonical_Smiles>
COc1ccc(/C=C/C(=O)/C=C/c2ccc(OC)cc2OC)c(OC)c1

$$$$

  SciTegic03142313312D

 24 24  0  0  0  0            999 V2000
    7.7794  -12.0187    0.0000 C   0  0
    7.7815  -10.5187    0.0000 C   0  0
    6.4833   -9.7656    0.0000 O   0  0
    6.4855   -8.2648    0.0000 C   0  0
    7.7858   -7.5171    0.0000 O   0  0
    5.1873   -7.5117    0.0000 C   0  0
    5.1894   -6.0109    0.0000 C   0  0
    3.8912   -5.2578    0.0000 C   0  0
    2.5917   -6.0086    0.0000 C   0  0
    1.2926   -5.2586    0.0000 C   0  0
    2.5912   -7.5086    0.0000 O   0  0
    3.8933   -3.7570    0.0000 C   0  0
    2.5951   -3.0056    0.0000 O   0  0
    5.1937   -3.0076    0.0000 C   0  0
    5.1958   -1.5068    0.0000 C   0  0
    6.4962   -0.7574    0.0000 C   0  0
    6.5004    0.7426    0.0000 C   0  0
    7.8016    1.4889    0.0000 C   0  0
    9.0985    0.7352    0.0000 C   0  0
   10.3997    1.4815    0.0000 O   0  0
    9.0942   -0.7648    0.0000 C   0  0
   10.3903   -1.5216    0.0000 O   0  0
   10.3839   -3.0216    0.0000 C   0  0
    7.7931   -1.5111    0.0000 C   0  0
  1  2  1  0
  2  3  1  0
  3  4  1  0
  4  5  2  0
  4  6  1  0
  6  7  1  0
  7  8  1  0
  8  9  1  0
  9 10  1  0
  9 11  2  0
  8 12  2  0
 12 13  1  0
 12 14  1  0
 14 15  2  0
 15 16  1  0
 16 17  2  0
 17 18  1  0
 18 19  2  0
 19 20  1  0
 19 21  1  0
 21 22  1  0
 22 23  1  0
 21 24  2  0
 24 16  1  0
M  END
> <assay_chembl_id>
CHEMBL866631

> <assay_description>
Cytotoxicity against human LNCaP cell line

> <document_journal>
J Med Chem

> <molecule_chembl_id>
CHEMBL211533

> <standard_value>
51500

> <IC50_uM>
51.5

> <Activity>
No

> <Canonical_Smiles>
CCOC(=O)CC/C(C(C)=O)=C(O)\C=C\c1ccc(O)c(OC)c1

$$$$

  SciTegic03142313312D

 21 23  0  0  0  0            999 V2000
    2.5909   -6.0056    0.0000 O   0  0
    3.8912   -5.2578    0.0000 C   0  0
    3.8933   -3.7570    0.0000 N   0  0
    2.5951   -3.0039    0.0000 N   0  0
    2.5973   -1.5031    0.0000 C   0  0
    1.2990   -0.7500    0.0000 C   0  0
    1.2990    0.7500    0.0000 C   0  0
    0.0000    1.5000    0.0000 C   0  0
   -1.2990    0.7500    0.0000 C   0  0
   -2.5981    1.5000    0.0000 C   0  0
   -3.8971    0.7500    0.0000 C   0  0
   -3.8971   -0.7500    0.0000 C   0  0
   -2.5981   -1.5000    0.0000 C   0  0
   -1.2990   -0.7500    0.0000 C   0  0
    0.0000   -1.5000    0.0000 N   0  0
    5.1894   -6.0109    0.0000 C   0  0
    5.1895   -7.5109    0.0000 C   0  0
    6.4885   -8.2610    0.0000 C   0  0
    7.7875   -7.5110    0.0000 C   0  0
    7.7876   -6.0110    0.0000 C   0  0
    6.4885   -5.2610    0.0000 C   0  0
  1  2  2  0
  2  3  1  0
  3  4  1  0
  4  5  2  0
  5  6  1  0
  6  7  2  0
  7  8  1  0
  8  9  2  0
  9 10  1  0
 10 11  2  0
 11 12  1  0
 12 13  2  0
 13 14  1  0
 14  9  1  0
 14 15  2  0
 15  6  1  0
  2 16  1  0
 16 17  2  0
 17 18  1  0
 18 19  2  0
 19 20  1  0
 20 21  2  0
 21 16  1  0
M  END
> <assay_chembl_id>
CHEMBL853865

> <assay_description>
Cytotoxicity against human LnCaP cell line by MTT assay after 72 hrs

> <document_journal>
J Med Chem

> <molecule_chembl_id>
CHEMBL385902

> <standard_value>
20000

> <IC50_uM>
20

> <Activity>
No

> <Canonical_Smiles>
O=C(N/N=C/c1ccc2ccccc2n1)c1ccccc1

$$$$

  SciTegic03142313312D

 22 24  0  0  0  0            999 V2000
    2.5909   -6.0056    0.0000 O   0  0
    3.8912   -5.2578    0.0000 C   0  0
    3.8933   -3.7570    0.0000 N   0  0
    2.5951   -3.0039    0.0000 N   0  0
    2.5973   -1.5031    0.0000 C   0  0
    1.2990   -0.7500    0.0000 C   0  0
    1.2990    0.7500    0.0000 C   0  0
    0.0000    1.5000    0.0000 C   0  0
   -1.2990    0.7500    0.0000 C   0  0
   -2.5981    1.5000    0.0000 C   0  0
   -3.8971    0.7500    0.0000 C   0  0
   -3.8971   -0.7500    0.0000 C   0  0
   -2.5981   -1.5000    0.0000 C   0  0
   -1.2990   -0.7500    0.0000 C   0  0
    0.0000   -1.5000    0.0000 N   0  0
    5.1894   -6.0109    0.0000 C   0  0
    6.4886   -5.2610    0.0000 C   0  0
    7.7876   -6.0110    0.0000 C   0  0
    7.7875   -7.5110    0.0000 C   0  0
    6.4885   -8.2610    0.0000 C   0  0
    5.1895   -7.5109    0.0000 C   0  0
    3.8904   -8.2609    0.0000 O   0  0
  1  2  2  0
  2  3  1  0
  3  4  1  0
  4  5  2  0
  5  6  1  0
  6  7  2  0
  7  8  1  0
  8  9  2  0
  9 10  1  0
 10 11  2  0
 11 12  1  0
 12 13  2  0
 13 14  1  0
 14  9  1  0
 14 15  2  0
 15  6  1  0
  2 16  1  0
 16 17  2  0
 17 18  1  0
 18 19  2  0
 19 20  1  0
 20 21  2  0
 21 16  1  0
 21 22  1  0
M  END
> <assay_chembl_id>
CHEMBL853865

> <assay_description>
Cytotoxicity against human LnCaP cell line by MTT assay after 72 hrs

> <document_journal>
J Med Chem

> <molecule_chembl_id>
CHEMBL1162934

> <standard_value>
31000

> <IC50_uM>
31

> <Activity>
No

> <Canonical_Smiles>
O=C(N/N=C/c1ccc2ccccc2n1)c1ccccc1O

$$$$

  SciTegic03142313312D

 28 32  0  0  1  0            999 V2000
    2.6018   -5.9994    0.0000 C   0  0
    3.9008   -5.2492    0.0000 O   0  0
    3.9014   -3.7484    0.0000 C   0  0
    2.6012   -3.0004    0.0000 C   0  0
    2.5987   -1.5004    0.0000 C   0  0
    1.2990   -0.7500    0.0000 C   0  0  2  0  0  0
    1.2990    0.7500    0.0000 C   0  0
    2.5981    1.5000    0.0000 C   0  0
    2.5981    3.0000    0.0000 C   0  0
    1.2990    3.7500    0.0000 C   0  0
    0.0000    3.0000    0.0000 C   0  0
    0.0000    1.5000    0.0000 C   0  0
   -1.2990    0.7500    0.0000 C   0  0
   -1.2990   -0.7500    0.0000 C   0  0  1  0  0  0
   -2.4133   -1.7530    0.0000 C   0  0
   -1.8032   -3.1233    0.0000 O   0  0
   -0.3114   -2.9665    0.0000 C   0  0
    0.6924   -4.0811    0.0000 O   0  0
    0.0000   -1.5000    0.0000 C   0  0  2  0  0  0
    1.6104    5.2165    0.0000 O   0  0
    3.1022    5.3733    0.0000 C   0  0
    3.7123    4.0030    0.0000 O   0  0
    3.8967   -0.7484    0.0000 C   0  0
    5.1969   -1.4963    0.0000 C   0  0
    6.4939   -0.7411    0.0000 O   0  0
    6.4894    0.7589    0.0000 C   0  0
    5.1993   -2.9963    0.0000 C   0  0
    6.4995   -3.7442    0.0000 O   0  0
  1  2  1  0
  2  3  1  0
  3  4  2  0
  4  5  1  0
  6  5  1  1
  6  7  1  0
  7  8  2  0
  8  9  1  0
  9 10  2  0
 10 11  1  0
 11 12  2  0
 12  7  1  0
 12 13  1  0
 14 13  1  6
 14 15  1  0
 15 16  1  0
 16 17  1  0
 17 18  2  0
 19 17  1  1
 19 14  1  0
 19  6  1  0
 10 20  1  0
 20 21  1  0
 21 22  1  0
 22  9  1  0
  5 23  2  0
 23 24  1  0
 24 25  1  0
 25 26  1  0
 24 27  2  0
 27  3  1  0
 27 28  1  0
M  END
> <assay_chembl_id>
CHEMBL911385

> <assay_description>
Cytotoxicity against androgen sensitive human LNCaP cells

> <document_journal>
J Nat Prod

> <molecule_chembl_id>
CHEMBL89905

> <standard_value>
150

> <IC50_uM>
0.15

> <Activity>
Yes

> <Canonical_Smiles>
COc1cc([C@@H]2c3cc4c(cc3C[C@H]3COC(=O)[C@@H]32)OCO4)cc(OC)c1O

$$$$

  SciTegic03142313312D

 29 33  0  0  1  0            999 V2000
    2.6018   -5.9994    0.0000 C   0  0
    3.9008   -5.2492    0.0000 O   0  0
    3.9014   -3.7484    0.0000 C   0  0
    2.6012   -3.0004    0.0000 C   0  0
    2.5987   -1.5004    0.0000 C   0  0
    1.2990   -0.7500    0.0000 C   0  0  2  0  0  0
    1.2990    0.7500    0.0000 C   0  0
    2.5981    1.5000    0.0000 C   0  0
    2.5981    3.0000    0.0000 C   0  0
    1.2990    3.7500    0.0000 C   0  0
    0.0000    3.0000    0.0000 C   0  0
    0.0000    1.5000    0.0000 C   0  0
   -1.2990    0.7500    0.0000 C   0  0
   -1.2990   -0.7500    0.0000 C   0  0  1  0  0  0
   -2.4133   -1.7530    0.0000 C   0  0
   -1.8032   -3.1233    0.0000 O   0  0
   -0.3114   -2.9665    0.0000 C   0  0
    0.6924   -4.0811    0.0000 O   0  0
    0.0000   -1.5000    0.0000 C   0  0  2  0  0  0
    1.6104    5.2165    0.0000 O   0  0
    3.1022    5.3733    0.0000 C   0  0
    3.7123    4.0030    0.0000 O   0  0
    3.8967   -0.7484    0.0000 C   0  0
    5.1969   -1.4963    0.0000 C   0  0
    6.4939   -0.7411    0.0000 O   0  0
    6.4894    0.7589    0.0000 C   0  0
    5.1993   -2.9963    0.0000 C   0  0
    6.4987   -3.7473    0.0000 O   0  0
    6.4990   -5.2473    0.0000 C   0  0
  1  2  1  0
  2  3  1  0
  3  4  2  0
  4  5  1  0
  6  5  1  1
  6  7  1  0
  7  8  2  0
  8  9  1  0
  9 10  2  0
 10 11  1  0
 11 12  2  0
 12  7  1  0
 12 13  1  0
 14 13  1  6
 14 15  1  0
 15 16  1  0
 16 17  1  0
 17 18  2  0
 19 17  1  1
 19 14  1  0
 19  6  1  0
 10 20  1  0
 20 21  1  0
 21 22  1  0
 22  9  1  0
  5 23  2  0
 23 24  1  0
 24 25  1  0
 25 26  1  0
 24 27  2  0
 27  3  1  0
 27 28  1  0
 28 29  1  0
M  END
> <assay_chembl_id>
CHEMBL911385

> <assay_description>
Cytotoxicity against androgen sensitive human LNCaP cells

> <document_journal>
J Nat Prod

> <molecule_chembl_id>
CHEMBL63970

> <standard_value>
30

> <IC50_uM>
0.03

> <Activity>
Yes

> <Canonical_Smiles>
COc1cc([C@@H]2c3cc4c(cc3C[C@H]3COC(=O)[C@@H]32)OCO4)cc(OC)c1OC

$$$$

  SciTegic03142313312D

 29 33  0  0  1  0            999 V2000
    2.6018   -5.9994    0.0000 C   0  0
    3.9008   -5.2492    0.0000 O   0  0
    3.9014   -3.7484    0.0000 C   0  0
    2.6012   -3.0004    0.0000 C   0  0
    2.5987   -1.5004    0.0000 C   0  0
    1.2990   -0.7500    0.0000 C   0  0  2  0  0  0
    1.2990    0.7500    0.0000 C   0  0
    2.5981    1.5000    0.0000 C   0  0
    2.5981    3.0000    0.0000 C   0  0
    1.2990    3.7500    0.0000 C   0  0
    0.0000    3.0000    0.0000 C   0  0
    0.0000    1.5000    0.0000 C   0  0
   -1.2990    0.7500    0.0000 C   0  0  2  0  0  0
   -2.5981    1.5000    0.0000 O   0  0
   -1.2990   -0.7500    0.0000 C   0  0  1  0  0  0
   -2.4133   -1.7530    0.0000 C   0  0
   -1.8032   -3.1233    0.0000 O   0  0
   -0.3114   -2.9665    0.0000 C   0  0
    0.6924   -4.0811    0.0000 O   0  0
    0.0000   -1.5000    0.0000 C   0  0  2  0  0  0
    1.6104    5.2165    0.0000 O   0  0
    3.1022    5.3733    0.0000 C   0  0
    3.7123    4.0030    0.0000 O   0  0
    3.8967   -0.7484    0.0000 C   0  0
    5.1969   -1.4963    0.0000 C   0  0
    6.4939   -0.7411    0.0000 O   0  0
    6.4894    0.7589    0.0000 C   0  0
    5.1993   -2.9963    0.0000 C   0  0
    6.4995   -3.7442    0.0000 O   0  0
  1  2  1  0
  2  3  1  0
  3  4  2  0
  4  5  1  0
  6  5  1  1
  6  7  1  0
  7  8  2  0
  8  9  1  0
  9 10  2  0
 10 11  1  0
 11 12  2  0
 12  7  1  0
 12 13  1  0
 13 14  1  1
 13 15  1  0
 15 16  1  6
 16 17  1  0
 17 18  1  0
 18 19  2  0
 20 18  1  1
 20  6  1  0
 20 15  1  0
 10 21  1  0
 21 22  1  0
 22 23  1  0
 23  9  1  0
  5 24  2  0
 24 25  1  0
 25 26  1  0
 26 27  1  0
 25 28  2  0
 28  3  1  0
 28 29  1  0
M  END
> <assay_chembl_id>
CHEMBL911385

> <assay_description>
Cytotoxicity against androgen sensitive human LNCaP cells

> <document_journal>
J Nat Prod

> <molecule_chembl_id>
CHEMBL28941

> <standard_value>
56

> <IC50_uM>
0.056

> <Activity>
Yes

> <Canonical_Smiles>
COc1cc([C@@H]2c3cc4c(cc3[C@H](O)[C@H]3COC(=O)[C@H]23)OCO4)cc(OC)c1O

$$$$

  SciTegic03142313312D

 30 34  0  0  1  0            999 V2000
    2.6018   -5.9994    0.0000 C   0  0
    3.9008   -5.2492    0.0000 O   0  0
    3.9014   -3.7484    0.0000 C   0  0
    2.6012   -3.0004    0.0000 C   0  0
    2.5987   -1.5004    0.0000 C   0  0
    1.2990   -0.7500    0.0000 C   0  0  2  0  0  0
    1.2990    0.7500    0.0000 C   0  0
    2.5981    1.5000    0.0000 C   0  0
    2.5981    3.0000    0.0000 C   0  0
    1.2990    3.7500    0.0000 C   0  0
    0.0000    3.0000    0.0000 C   0  0
    0.0000    1.5000    0.0000 C   0  0
   -1.2990    0.7500    0.0000 C   0  0  2  0  0  0
   -2.5981    1.5000    0.0000 O   0  0
   -1.2990   -0.7500    0.0000 C   0  0  1  0  0  0
   -2.4133   -1.7530    0.0000 C   0  0
   -1.8032   -3.1233    0.0000 O   0  0
   -0.3114   -2.9665    0.0000 C   0  0
    0.6924   -4.0811    0.0000 O   0  0
    0.0000   -1.5000    0.0000 C   0  0  2  0  0  0
    1.6104    5.2165    0.0000 O   0  0
    3.1022    5.3733    0.0000 C   0  0
    3.7123    4.0030    0.0000 O   0  0
    3.8967   -0.7484    0.0000 C   0  0
    5.1969   -1.4963    0.0000 C   0  0
    6.4939   -0.7411    0.0000 O   0  0
    6.4894    0.7589    0.0000 C   0  0
    5.1993   -2.9963    0.0000 C   0  0
    6.4987   -3.7473    0.0000 O   0  0
    6.4990   -5.2473    0.0000 C   0  0
  1  2  1  0
  2  3  1  0
  3  4  2  0
  4  5  1  0
  6  5  1  1
  6  7  1  0
  7  8  2  0
  8  9  1  0
  9 10  2  0
 10 11  1  0
 11 12  2  0
 12  7  1  0
 12 13  1  0
 13 14  1  1
 13 15  1  0
 15 16  1  6
 16 17  1  0
 17 18  1  0
 18 19  2  0
 20 18  1  1
 20  6  1  0
 20 15  1  0
 10 21  1  0
 21 22  1  0
 22 23  1  0
 23  9  1  0
  5 24  2  0
 24 25  1  0
 25 26  1  0
 26 27  1  0
 25 28  2  0
 28  3  1  0
 28 29  1  0
 29 30  1  0
M  END
> <assay_chembl_id>
CHEMBL911385

> <assay_description>
Cytotoxicity against androgen sensitive human LNCaP cells

> <document_journal>
J Nat Prod

> <molecule_chembl_id>
CHEMBL61

> <standard_value>
31

> <IC50_uM>
0.031

> <Activity>
Yes

> <Canonical_Smiles>
COc1cc([C@@H]2c3cc4c(cc3[C@H](O)[C@H]3COC(=O)[C@H]23)OCO4)cc(OC)c1OC

$$$$

  SciTegic03142313312D

 38 42  0  0  0  0            999 V2000
    3.8930   -3.7566    0.0000 C   0  0
    2.5955   -3.0038    0.0000 O   0  0
    2.5978   -1.5030    0.0000 C   0  0
    1.2990   -0.7500    0.0000 C   0  0
    1.2990    0.7500    0.0000 C   0  0
    0.0000    1.5000    0.0000 C   0  0
    0.0000    3.0000    0.0000 F   0  0
   -1.2990    0.7500    0.0000 C   0  0
   -1.2990   -0.7500    0.0000 C   0  0
   -2.5972   -1.5031    0.0000 O   0  0
   -2.5951   -3.0039    0.0000 C   0  0
   -3.8933   -3.7570    0.0000 C   0  0
   -4.0312   -5.2379    0.0000 C   0  0
   -5.4984   -5.5497    0.0000 C   0  0
   -6.1088   -6.9207    0.0000 C   0  0
   -5.3228   -8.1925    0.0000 C   0  0
   -6.0342   -9.5130    0.0000 C   0  0
   -7.5336   -9.5571    0.0000 C   0  0
   -8.3215   -8.2807    0.0000 C   0  0
   -7.6100   -6.9602    0.0000 C   0  0
   -6.2484   -4.2507    0.0000 N   0  0
   -7.7409   -4.0938    0.0000 C   0  0
   -8.7075   -5.2344    0.0000 C   0  0
  -10.1833   -4.9658    0.0000 C   0  0
  -10.6886   -3.5535    0.0000 C   0  0
  -12.1651   -3.2847    0.0000 S   0  0
  -12.6700   -1.8722    0.0000 C   0  0
  -13.1363   -4.4279    0.0000 O   0  0
  -13.6408   -3.0155    0.0000 O   0  0
   -9.7181   -2.4097    0.0000 C   0  0
   -8.2423   -2.6783    0.0000 C   0  0
   -5.2447   -3.1360    0.0000 N   0  0
    0.0000   -1.5000    0.0000 C   0  0
    2.5641   -0.0238    0.0000 C   0  0
    3.8644    0.7241    0.0000 C   0  0
    5.1622   -0.0281    0.0000 O   0  0
    5.1597   -1.5281    0.0000 C   0  0
    3.8594   -2.2759    0.0000 C   0  0
  1  2  1  0
  2  3  1  0
  3  4  1  0
  4  5  2  0
  5  6  1  0
  6  7  1  0
  6  8  2  0
  8  9  1  0
  9 10  1  0
 10 11  1  0
 11 12  1  0
 12 13  1  0
 13 14  2  0
 14 15  1  0
 15 16  2  0
 16 17  1  0
 17 18  2  0
 18 19  1  0
 19 20  2  0
 20 15  1  0
 14 21  1  0
 21 22  1  0
 22 23  2  0
 23 24  1  0
 24 25  2  0
 25 26  1  0
 26 27  1  0
 26 28  2  0
 26 29  2  0
 25 30  1  0
 30 31  2  0
 31 22  1  0
 21 32  1  0
 32 12  2  0
  9 33  2  0
 33  4  1  0
  3 34  1  0
 34 35  1  0
 35 36  1  0
 36 37  1  0
 37 38  1  0
 38  3  1  0
M  END
> <assay_chembl_id>
CHEMBL919563

> <assay_description>
Antiproliferative activity against androgen-sensitive human LNCaP cells after 72 hrs by MTT test

> <document_journal>
J Med Chem

> <molecule_chembl_id>
CHEMBL423638

> <standard_value>
83400

> <IC50_uM>
83.4

> <Activity>
No

> <Canonical_Smiles>
COC1(c2cc(F)cc(OCc3cc(-c4ccccc4)n(-c4ccc(S(C)(=O)=O)cc4)n3)c2)CCOCC1

$$$$

  SciTegic03142313312D

 38 42  0  0  0  0            999 V2000
    3.8930   -3.7566    0.0000 C   0  0
    2.5955   -3.0038    0.0000 O   0  0
    2.5978   -1.5030    0.0000 C   0  0
    1.2990   -0.7500    0.0000 C   0  0
    1.2990    0.7500    0.0000 C   0  0
    0.0000    1.5000    0.0000 C   0  0
    0.0000    3.0000    0.0000 F   0  0
   -1.2990    0.7500    0.0000 C   0  0
   -1.2990   -0.7500    0.0000 C   0  0
   -2.5972   -1.5031    0.0000 O   0  0
   -2.5951   -3.0039    0.0000 C   0  0
   -3.8933   -3.7570    0.0000 C   0  0
   -4.0312   -5.2379    0.0000 C   0  0
   -5.4984   -5.5497    0.0000 C   0  0
   -6.1088   -6.9207    0.0000 C   0  0
   -5.3228   -8.1925    0.0000 C   0  0
   -6.0342   -9.5130    0.0000 C   0  0
   -7.5336   -9.5571    0.0000 C   0  0
   -8.3215   -8.2807    0.0000 C   0  0
   -7.6100   -6.9602    0.0000 C   0  0
   -6.2484   -4.2507    0.0000 N   0  0
   -7.7409   -4.0938    0.0000 C   0  0
   -8.7075   -5.2344    0.0000 C   0  0
  -10.1833   -4.9658    0.0000 C   0  0
  -10.6886   -3.5535    0.0000 C   0  0
  -12.1651   -3.2847    0.0000 S   0  0
  -12.6700   -1.8722    0.0000 N   0  0
  -13.1363   -4.4279    0.0000 O   0  0
  -13.6408   -3.0155    0.0000 O   0  0
   -9.7181   -2.4097    0.0000 C   0  0
   -8.2423   -2.6783    0.0000 C   0  0
   -5.2447   -3.1360    0.0000 N   0  0
    0.0000   -1.5000    0.0000 C   0  0
    2.5641   -0.0238    0.0000 C   0  0
    3.8644    0.7241    0.0000 C   0  0
    5.1622   -0.0281    0.0000 O   0  0
    5.1597   -1.5281    0.0000 C   0  0
    3.8594   -2.2759    0.0000 C   0  0
  1  2  1  0
  2  3  1  0
  3  4  1  0
  4  5  2  0
  5  6  1  0
  6  7  1  0
  6  8  2  0
  8  9  1  0
  9 10  1  0
 10 11  1  0
 11 12  1  0
 12 13  1  0
 13 14  2  0
 14 15  1  0
 15 16  2  0
 16 17  1  0
 17 18  2  0
 18 19  1  0
 19 20  2  0
 20 15  1  0
 14 21  1  0
 21 22  1  0
 22 23  2  0
 23 24  1  0
 24 25  2  0
 25 26  1  0
 26 27  1  0
 26 28  2  0
 26 29  2  0
 25 30  1  0
 30 31  2  0
 31 22  1  0
 21 32  1  0
 32 12  2  0
  9 33  2  0
 33  4  1  0
  3 34  1  0
 34 35  1  0
 35 36  1  0
 36 37  1  0
 37 38  1  0
 38  3  1  0
M  END
> <assay_chembl_id>
CHEMBL919563

> <assay_description>
Antiproliferative activity against androgen-sensitive human LNCaP cells after 72 hrs by MTT test

> <document_journal>
J Med Chem

> <molecule_chembl_id>
CHEMBL374427

> <standard_value>
49700

> <IC50_uM>
49.7

> <Activity>
No

> <Canonical_Smiles>
COC1(c2cc(F)cc(OCc3cc(-c4ccccc4)n(-c4ccc(S(N)(=O)=O)cc4)n3)c2)CCOCC1

$$$$

  SciTegic03142313312D

 26 28  0  0  0  0            999 V2000
    2.5981   -1.5000    0.0000 C   0  0
    1.2990   -0.7500    0.0000 C   0  0
    1.2990    0.7500    0.0000 C   0  0
    0.0000    1.5000    0.0000 C   0  0
   -1.2990    0.7500    0.0000 C   0  0
   -2.5987    1.5004    0.0000 C   0  0
   -3.9492    0.8772    0.0000 C   0  0
   -4.9546    1.9903    0.0000 C   0  0
   -6.4444    1.8313    0.0000 C   0  0
   -7.0532    0.4604    0.0000 F   0  0
   -7.3276    3.0437    0.0000 F   0  0
   -7.9360    1.6729    0.0000 F   0  0
   -4.2067    3.2905    0.0000 N   0  0
   -2.7390    2.9810    0.0000 N   0  0
   -1.6193    3.9803    0.0000 C   0  0
   -0.1673    3.6256    0.0000 C   0  0
    0.8689    4.7101    0.0000 C   0  0
    0.4478    6.1498    0.0000 C   0  0
    1.4846    7.2349    0.0000 S   0  0
    1.0630    8.6745    0.0000 N   0  0
    2.9422    6.8807    0.0000 O   0  0
    2.5203    8.3200    0.0000 O   0  0
   -1.0096    6.5049    0.0000 C   0  0
   -2.0458    5.4204    0.0000 C   0  0
   -1.2990   -0.7500    0.0000 C   0  0
    0.0000   -1.5000    0.0000 C   0  0
  1  2  1  0
  2  3  2  0
  3  4  1  0
  4  5  2  0
  5  6  1  0
  6  7  2  0
  7  8  1  0
  8  9  1  0
  9 10  1  0
  9 11  1  0
  9 12  1  0
  8 13  2  0
 13 14  1  0
 14  6  1  0
 14 15  1  0
 15 16  2  0
 16 17  1  0
 17 18  2  0
 18 19  1  0
 19 20  1  0
 19 21  2  0
 19 22  2  0
 18 23  1  0
 23 24  2  0
 24 15  1  0
  5 25  1  0
 25 26  2  0
 26  2  1  0
M  END
> <assay_chembl_id>
CHEMBL919563

> <assay_description>
Antiproliferative activity against androgen-sensitive human LNCaP cells after 72 hrs by MTT test

> <document_journal>
J Med Chem

> <molecule_chembl_id>
CHEMBL118

> <standard_value>
50400

> <IC50_uM>
50.4

> <Activity>
No

> <Canonical_Smiles>
Cc1ccc(-c2cc(C(F)(F)F)nn2-c2ccc(S(N)(=O)=O)cc2)cc1

$$$$

  SciTegic03142313312D

 24 27  0  0  0  0            999 V2000
    5.2029   -2.9932    0.0000 O   0  0
    5.2003   -1.4932    0.0000 C   0  0
    3.8990   -0.7455    0.0000 N   0  0
    2.6003   -1.4977    0.0000 N   0  0
    1.2990   -0.7500    0.0000 C   0  0
    1.2990    0.7500    0.0000 N   0  0
    0.0000    1.5000    0.0000 C   0  0
    0.0000    3.0000    0.0000 C   0  0
   -1.2991    3.7500    0.0000 C   0  0
   -1.2991    5.2500    0.0000 F   0  0
   -2.5981    3.0000    0.0000 C   0  0
   -2.5981    1.5000    0.0000 C   0  0
   -1.2990    0.7500    0.0000 C   0  0
   -1.2990   -0.7500    0.0000 N   0  0
   -2.4133   -1.7530    0.0000 C   0  0
   -1.8032   -3.1233    0.0000 C   0  0
   -0.3114   -2.9665    0.0000 C   0  0
    0.0000   -1.5000    0.0000 C   0  0
    6.4990   -0.7409    0.0000 C   0  0
    7.8007   -1.4864    0.0000 C   0  0
    9.0971   -0.7319    0.0000 N   0  0
    9.0919    0.7681    0.0000 C   0  0
    7.7903    1.5136    0.0000 C   0  0
    6.4939    0.7591    0.0000 N   0  0
  1  2  2  0
  2  3  1  0
  3  4  1  0
  4  5  1  0
  5  6  2  0
  6  7  1  0
  7  8  2  0
  8  9  1  0
  9 10  1  0
  9 11  2  0
 11 12  1  0
 12 13  2  0
 13  7  1  0
 13 14  1  0
 14 15  1  0
 15 16  2  0
 16 17  1  0
 17 18  2  0
 18  5  1  0
 18 14  1  0
  2 19  1  0
 19 20  2  0
 20 21  1  0
 21 22  2  0
 22 23  1  0
 23 24  2  0
 24 19  1  0
M  END
> <assay_chembl_id>
CHEMBL917367

> <assay_description>
Cytotoxicity against human LNCap cells after 72 hrs by MTT assay

> <document_journal>
Bioorg Med Chem

> <molecule_chembl_id>
CHEMBL225542

> <standard_value>
400

> <IC50_uM>
0.4

> <Activity>
Yes

> <Canonical_Smiles>
O=C(NNc1nc2cc(F)ccc2n2cccc12)c1cnccn1

$$$$

  SciTegic03142313312D

 24 27  0  0  0  0            999 V2000
    5.2029   -2.9932    0.0000 O   0  0
    5.2003   -1.4932    0.0000 C   0  0
    3.8990   -0.7455    0.0000 N   0  0
    2.6003   -1.4977    0.0000 N   0  0
    1.2990   -0.7500    0.0000 C   0  0
    1.2990    0.7500    0.0000 N   0  0
    0.0000    1.5000    0.0000 C   0  0
    0.0000    3.0000    0.0000 C   0  0
   -1.2991    3.7500    0.0000 C   0  0
   -2.5981    3.0000    0.0000 C   0  0
   -2.5981    1.5000    0.0000 C   0  0
   -3.8971    0.7500    0.0000 F   0  0
   -1.2990    0.7500    0.0000 C   0  0
   -1.2990   -0.7500    0.0000 N   0  0
   -2.4133   -1.7530    0.0000 C   0  0
   -1.8032   -3.1233    0.0000 C   0  0
   -0.3114   -2.9665    0.0000 C   0  0
    0.0000   -1.5000    0.0000 C   0  0
    6.4990   -0.7409    0.0000 C   0  0
    7.8007   -1.4864    0.0000 C   0  0
    9.0971   -0.7319    0.0000 N   0  0
    9.0919    0.7681    0.0000 C   0  0
    7.7903    1.5136    0.0000 C   0  0
    6.4939    0.7591    0.0000 N   0  0
  1  2  2  0
  2  3  1  0
  3  4  1  0
  4  5  1  0
  5  6  2  0
  6  7  1  0
  7  8  2  0
  8  9  1  0
  9 10  2  0
 10 11  1  0
 11 12  1  0
 11 13  2  0
 13  7  1  0
 13 14  1  0
 14 15  1  0
 15 16  2  0
 16 17  1  0
 17 18  2  0
 18  5  1  0
 18 14  1  0
  2 19  1  0
 19 20  2  0
 20 21  1  0
 21 22  2  0
 22 23  1  0
 23 24  2  0
 24 19  1  0
M  END
> <assay_chembl_id>
CHEMBL917367

> <assay_description>
Cytotoxicity against human LNCap cells after 72 hrs by MTT assay

> <document_journal>
Bioorg Med Chem

> <molecule_chembl_id>
CHEMBL223329

> <standard_value>
400

> <IC50_uM>
0.4

> <Activity>
Yes

> <Canonical_Smiles>
O=C(NNc1nc2cccc(F)c2n2cccc12)c1cnccn1

$$$$

  SciTegic03142313312D

 24 26  0  0  0  0            999 V2000
    2.5981   -1.5000    0.0000 O   0  0
    1.2990   -0.7500    0.0000 C   0  0
    1.2990    0.7500    0.0000 C   0  0
    0.0000    1.5000    0.0000 C   0  0
   -0.0031    3.0008    0.0000 C   0  0
   -1.3032    3.7490    0.0000 O   0  0
   -1.2990    0.7500    0.0000 O   0  0
   -1.2990   -0.7500    0.0000 C   0  0
   -2.6003   -1.4978    0.0000 C   0  0  3  0  0  0
   -3.8990   -0.7455    0.0000 N   0  0
   -5.2003   -1.4932    0.0000 C   0  0
   -6.4994   -0.7433    0.0000 C   0  0
   -7.7985   -1.4932    0.0000 C   0  0
   -7.7985   -2.9932    0.0000 C   0  0
   -6.4995   -3.7433    0.0000 C   0  0
   -5.2004   -2.9933    0.0000 C   0  0
   -2.6029   -2.9985    0.0000 C   0  0
   -3.9023   -3.7481    0.0000 C   0  0
   -3.9028   -5.2481    0.0000 C   0  0
   -2.6041   -5.9986    0.0000 C   0  0
   -1.3048   -5.2491    0.0000 C   0  0
   -1.3042   -3.7491    0.0000 C   0  0
    0.0000   -1.5000    0.0000 C   0  0
    0.0000   -3.0000    0.0000 O   0  0
  1  2  2  0
  2  3  1  0
  3  4  2  0
  4  5  1  0
  5  6  1  0
  4  7  1  0
  7  8  1  0
  8  9  1  0
  9 10  1  4
 10 11  1  0
 11 12  2  0
 12 13  1  0
 13 14  2  0
 14 15  1  0
 15 16  2  0
 16 11  1  0
  9 17  1  0
 17 18  2  0
 18 19  1  0
 19 20  2  0
 20 21  1  0
 21 22  2  0
 22 17  1  0
  8 23  2  0
 23  2  1  0
 23 24  1  0
M  END
> <assay_chembl_id>
CHEMBL893658

> <assay_description>
Growth inhibition of human LNCaP cells after 3 days by MTT colorimetric assay

> <document_journal>
Bioorg Med Chem

> <molecule_chembl_id>
CHEMBL242708

> <standard_value>
20900

> <IC50_uM>
20.9

> <Activity>
No

> <Canonical_Smiles>
O=c1cc(CO)oc(C(Nc2ccccc2)c2ccccc2)c1O

$$$$

  SciTegic03142313312D

 21 22  0  0  0  0            999 V2000
    2.5981   -1.5000    0.0000 C   0  0
    1.2990   -0.7500    0.0000 C   0  0
    1.2990    0.7500    0.0000 C   0  0
    0.0000    1.5000    0.0000 C   0  0
   -1.2990    0.7500    0.0000 C   0  0
   -2.5988    1.5004    0.0000 S   0  0
   -3.8976    0.7500    0.0000 O   0  0
   -3.8982    2.2498    0.0000 O   0  0
   -2.5998    3.0012    0.0000 N   0  0
   -3.8995    3.7516    0.0000 C   0  0
   -5.1971    2.9990    0.0000 C   0  0
   -6.4977    3.7464    0.0000 C   0  0
   -6.5007    5.2464    0.0000 C   0  0
   -7.8013    5.9937    0.0000 C   0  0
   -5.2032    5.9990    0.0000 C   0  0
   -3.9027    5.2517    0.0000 C   0  0
   -2.6060    6.0074    0.0000 N   0  3
   -2.6113    7.5074    0.0000 O   0  0
   -1.3041    5.2624    0.0000 O   0  5
   -1.2990   -0.7500    0.0000 C   0  0
    0.0000   -1.5000    0.0000 C   0  0
  1  2  1  0
  2  3  2  0
  3  4  1  0
  4  5  2  0
  5  6  1  0
  6  7  2  0
  6  8  2  0
  6  9  1  0
  9 10  1  0
 10 11  2  0
 11 12  1  0
 12 13  2  0
 13 14  1  0
 13 15  1  0
 15 16  2  0
 16 10  1  0
 16 17  1  0
 17 18  2  0
 17 19  1  0
  5 20  1  0
 20 21  2  0
 21  2  1  0
M  CHG  2  17   1  19  -1
M  END
> <assay_chembl_id>
CHEMBL893658

> <assay_description>
Growth inhibition of human LNCaP cells after 3 days by MTT colorimetric assay

> <document_journal>
Bioorg Med Chem

> <molecule_chembl_id>
CHEMBL242923

> <standard_value>
39800

> <IC50_uM>
39.8

> <Activity>
No

> <Canonical_Smiles>
Cc1ccc(S(=O)(=O)Nc2ccc(C)cc2[N+](=O)[O-])cc1

$$$$

  SciTegic03142313312D

 21 22  0  0  0  0            999 V2000
    3.8869   -8.2595    0.0000 O   0  0
    5.1873   -7.5117    0.0000 C   0  0
    5.1894   -6.0109    0.0000 C   0  0
    3.8912   -5.2578    0.0000 N   0  0
    3.8933   -3.7570    0.0000 C   0  0
    2.5951   -3.0039    0.0000 C   0  0
    2.5973   -1.5031    0.0000 C   0  0
    1.2990   -0.7500    0.0000 C   0  0
    1.2990    0.7500    0.0000 C   0  0
    0.0000    1.5000    0.0000 C   0  0
   -1.2990    0.7500    0.0000 C   0  0
   -1.2990   -0.7500    0.0000 C   0  0
    0.0000   -1.5000    0.0000 C   0  0
    6.4855   -8.2648    0.0000 C   0  0
    6.4855   -9.7648    0.0000 C   0  0
    7.7846  -10.5149    0.0000 C   0  0
    9.0836   -9.7649    0.0000 C   0  0
   10.3826  -10.5149    0.0000 O   0  0
    9.0836   -8.2649    0.0000 C   0  0
   10.3827   -7.5149    0.0000 O   0  0
    7.7846   -7.5149    0.0000 C   0  0
  1  2  2  0
  2  3  1  0
  3  4  1  0
  4  5  1  0
  5  6  1  0
  6  7  1  0
  7  8  1  0
  8  9  2  0
  9 10  1  0
 10 11  2  0
 11 12  1  0
 12 13  2  0
 13  8  1  0
  2 14  1  0
 14 15  2  0
 15 16  1  0
 16 17  2  0
 17 18  1  0
 17 19  1  0
 19 20  1  0
 19 21  2  0
 21 14  1  0
M  END
> <assay_chembl_id>
CHEMBL893658

> <assay_description>
Growth inhibition of human LNCaP cells after 3 days by MTT colorimetric assay

> <document_journal>
Bioorg Med Chem

> <molecule_chembl_id>
CHEMBL415256

> <standard_value>
26900

> <IC50_uM>
26.9

> <Activity>
No

> <Canonical_Smiles>
O=C(CNCCCc1ccccc1)c1ccc(O)c(O)c1

$$$$

  SciTegic03142313312D

 21 24  0  0  0  0            999 V2000
    2.5981   -1.5000    0.0000 O   0  0
    1.2990   -0.7500    0.0000 C   0  0
    1.2990    0.7500    0.0000 C   0  0
    2.5981    1.5000    0.0000 C   0  0
    2.5981    3.0000    0.0000 C   0  0
    1.2990    3.7500    0.0000 C   0  0
    0.0000    3.0000    0.0000 C   0  0
    0.0000    1.5000    0.0000 C   0  0
   -1.2990    0.7500    0.0000 O   0  0
   -1.2990   -0.7500    0.0000 C   0  0
   -2.5981   -1.5000    0.0000 C   0  0
   -2.5981   -3.0000    0.0000 C   0  0
   -3.8963   -3.7531    0.0000 O   0  0
   -3.8941   -5.2539    0.0000 C   0  0
   -5.1923   -6.0070    0.0000 C   0  0  3  0  0  0
   -5.8632   -7.2603    0.0000 C   0  0
   -6.6132   -5.9612    0.0000 O   0  0
   -1.2990   -3.7500    0.0000 C   0  0
    0.0000   -3.0000    0.0000 C   0  0
    1.2991   -3.7500    0.0000 O   0  0
    0.0000   -1.5000    0.0000 C   0  0
  1  2  2  0
  2  3  1  0
  3  4  2  0
  4  5  1  0
  5  6  2  0
  6  7  1  0
  7  8  2  0
  8  3  1  0
  8  9  1  0
  9 10  1  0
 10 11  2  0
 11 12  1  0
 12 13  1  0
 13 14  1  0
 15 14  1  4
 15 16  1  0
 16 17  1  0
 17 15  1  0
 12 18  2  0
 18 19  1  0
 19 20  1  0
 19 21  2  0
 21  2  1  0
 21 10  1  0
M  END
> <assay_chembl_id>
CHEMBL897060

> <assay_description>
Cytotoxicity against human LnCap cells after 4 days by MTT assay

> <document_journal>
Bioorg Med Chem Lett

> <molecule_chembl_id>
CHEMBL231904

> <standard_value>
93100

> <IC50_uM>
93.1

> <Activity>
No

> <Canonical_Smiles>
O=c1c2ccccc2oc2cc(OCC3CO3)cc(O)c12

$$$$

  SciTegic03142313312D

 22 24  0  0  0  0            999 V2000
    2.5981   -1.5000    0.0000 O   0  0
    1.2990   -0.7500    0.0000 C   0  0
    1.2990    0.7500    0.0000 C   0  0
    2.5981    1.5000    0.0000 C   0  0
    2.5981    3.0000    0.0000 C   0  0
    1.2990    3.7500    0.0000 C   0  0
    0.0000    3.0000    0.0000 C   0  0
    0.0000    1.5000    0.0000 C   0  0
   -1.2990    0.7500    0.0000 O   0  0
   -1.2990   -0.7500    0.0000 C   0  0
   -2.5981   -1.5000    0.0000 C   0  0
   -2.5981   -3.0000    0.0000 C   0  0
   -3.8963   -3.7531    0.0000 O   0  0
   -3.8941   -5.2539    0.0000 C   0  0
   -5.1923   -6.0070    0.0000 C   0  0  3  0  0  0
   -6.4927   -5.2593    0.0000 O   0  0
   -5.1902   -7.5079    0.0000 C   0  0
   -6.4877   -8.2605    0.0000 Br  0  0
   -1.2990   -3.7500    0.0000 C   0  0
    0.0000   -3.0000    0.0000 C   0  0
    1.2991   -3.7500    0.0000 O   0  0
    0.0000   -1.5000    0.0000 C   0  0
  1  2  2  0
  2  3  1  0
  3  4  2  0
  4  5  1  0
  5  6  2  0
  6  7  1  0
  7  8  2  0
  8  3  1  0
  8  9  1  0
  9 10  1  0
 10 11  2  0
 11 12  1  0
 12 13  1  0
 13 14  1  0
 14 15  1  0
 15 16  1  4
 15 17  1  0
 17 18  1  0
 12 19  2  0
 19 20  1  0
 20 21  1  0
 20 22  2  0
 22  2  1  0
 22 10  1  0
M  END
> <assay_chembl_id>
CHEMBL897060

> <assay_description>
Cytotoxicity against human LnCap cells after 4 days by MTT assay

> <document_journal>
Bioorg Med Chem Lett

> <molecule_chembl_id>
CHEMBL233367

> <standard_value>
64400

> <IC50_uM>
64.4

> <Activity>
No

> <Canonical_Smiles>
O=c1c2ccccc2oc2cc(OCC(O)CBr)cc(O)c12

$$$$

  SciTegic03142313312D

 11 11  0  0  0  0            999 V2000
    3.8912   -5.2570    0.0000 N   0  0
    3.8933   -3.7570    0.0000 C   0  0
    5.1937   -3.0093    0.0000 N   0  0
    2.5951   -3.0039    0.0000 N   0  0
    2.5973   -1.5031    0.0000 C   0  0
    1.2990   -0.7500    0.0000 C   0  0
    1.2990    0.7500    0.0000 C   0  0
    0.0000    1.5000    0.0000 C   0  0
   -1.2990    0.7500    0.0000 C   0  0
   -1.2990   -0.7500    0.0000 C   0  0
    0.0000   -1.5000    0.0000 C   0  0
  1  2  2  0
  2  3  1  0
  2  4  1  0
  4  5  1  0
  5  6  1  0
  6  7  2  0
  7  8  1  0
  8  9  2  0
  9 10  1  0
 10 11  2  0
 11  6  1  0
M  END
> <assay_chembl_id>
CHEMBL902979

> <assay_description>
Antiproliferative activity against human LnCAP cells after 72 hrs

> <document_journal>
J Med Chem

> <molecule_chembl_id>
CHEMBL288640

> <standard_value>
43700

> <IC50_uM>
43.7

> <Activity>
No

> <Canonical_Smiles>
N=C(N)NCc1ccccc1

$$$$

  SciTegic03142313312D

 24 26  0  0  0  0            999 V2000
    7.7808  -10.5183    0.0000 N   0  0
    6.4833   -9.7656    0.0000 C   0  0
    5.1830  -10.5134    0.0000 N   0  0
    6.4855   -8.2648    0.0000 N   0  0
    5.1873   -7.5117    0.0000 C   0  0
    5.1894   -6.0109    0.0000 C   0  0
    3.8912   -5.2578    0.0000 C   0  0
    3.8933   -3.7570    0.0000 C   0  0
    2.5951   -3.0039    0.0000 N   0  0
    2.5973   -1.5031    0.0000 C   0  0
    1.2990   -0.7500    0.0000 C   0  0
    1.2990    0.7500    0.0000 C   0  0
    2.5981    1.5000    0.0000 C   0  0
    2.5981    3.0000    0.0000 C   0  0
    1.2990    3.7500    0.0000 C   0  0
    0.0000    3.0000    0.0000 C   0  0
    0.0000    1.5000    0.0000 C   0  0
   -1.2990    0.7500    0.0000 C   0  0
   -1.2990   -0.7500    0.0000 C   0  0
   -2.5981   -1.5000    0.0000 C   0  0
   -2.5981   -3.0000    0.0000 C   0  0
   -1.2990   -3.7500    0.0000 C   0  0
    0.0000   -3.0000    0.0000 C   0  0
    0.0000   -1.5000    0.0000 C   0  0
  1  2  2  0
  2  3  1  0
  2  4  1  0
  4  5  1  0
  5  6  1  0
  6  7  1  0
  7  8  1  0
  8  9  1  0
  9 10  1  0
 10 11  1  0
 11 12  2  0
 12 13  1  0
 13 14  2  0
 14 15  1  0
 15 16  2  0
 16 17  1  0
 17 12  1  0
 17 18  2  0
 18 19  1  0
 19 20  2  0
 20 21  1  0
 21 22  2  0
 22 23  1  0
 23 24  2  0
 24 11  1  0
 24 19  1  0
M  END
> <assay_chembl_id>
CHEMBL902979

> <assay_description>
Antiproliferative activity against human LnCAP cells after 72 hrs

> <document_journal>
J Med Chem

> <molecule_chembl_id>
CHEMBL238151

> <standard_value>
28200

> <IC50_uM>
28.2

> <Activity>
No

> <Canonical_Smiles>
N=C(N)NCCCCNCc1c2ccccc2cc2ccccc12

$$$$

  SciTegic03142313312D

 21 24  0  0  0  0            999 V2000
    6.4983   -0.7414    0.0000 N   0  0
    5.2003   -1.4932    0.0000 C   0  0
    5.2029   -2.9932    0.0000 N   0  0
    3.8990   -0.7455    0.0000 N   0  0
    2.6003   -1.4977    0.0000 C   0  0
    1.2990   -0.7500    0.0000 C   0  0
    1.2990    0.7500    0.0000 C   0  0
    0.0000    1.5000    0.0000 C   0  0
   -1.2990    0.7500    0.0000 C   0  0
   -2.5981    1.5000    0.0000 C   0  0
   -3.8971    0.7500    0.0000 C   0  0
   -3.8971   -0.7500    0.0000 C   0  0
   -5.1962   -1.5000    0.0000 C   0  0
   -5.1961   -3.0000    0.0000 C   0  0
   -3.8971   -3.7500    0.0000 C   0  0
   -2.5981   -3.0000    0.0000 C   0  0
   -1.2990   -3.7500    0.0000 C   0  0
    0.0000   -3.0000    0.0000 C   0  0
    0.0000   -1.5000    0.0000 C   0  0
   -1.2990   -0.7500    0.0000 C   0  0
   -2.5981   -1.5000    0.0000 C   0  0
  1  2  2  0
  2  3  1  0
  2  4  1  0
  4  5  1  0
  5  6  1  0
  6  7  2  0
  7  8  1  0
  8  9  2  0
  9 10  1  0
 10 11  2  0
 11 12  1  0
 12 13  2  0
 13 14  1  0
 14 15  2  0
 15 16  1  0
 16 17  2  0
 17 18  1  0
 18 19  2  0
 19  6  1  0
 19 20  1  0
 20  9  1  0
 20 21  2  0
 21 12  1  0
 21 16  1  0
M  END
> <assay_chembl_id>
CHEMBL902979

> <assay_description>
Antiproliferative activity against human LnCAP cells after 72 hrs

> <document_journal>
J Med Chem

> <molecule_chembl_id>
CHEMBL391612

> <standard_value>
93300

> <IC50_uM>
93.3

> <Activity>
No

> <Canonical_Smiles>
N=C(N)NCc1ccc2ccc3cccc4ccc1c2c34

$$$$

  SciTegic03142313312D

 18 20  0  0  0  0            999 V2000
    3.8912   -5.2570    0.0000 N   0  0
    3.8933   -3.7570    0.0000 C   0  0
    5.1937   -3.0093    0.0000 N   0  0
    2.5951   -3.0039    0.0000 N   0  0
    2.5973   -1.5031    0.0000 C   0  0
    1.2990   -0.7500    0.0000 C   0  0
    1.2990    0.7500    0.0000 C   0  0
    0.0000    1.5000    0.0000 C   0  0
   -1.2990    0.7500    0.0000 C   0  0
   -1.2990   -0.7500    0.0000 C   0  0
    0.0000   -1.5000    0.0000 C   0  0
   -2.7248   -1.2135    0.0000 C   0  0
   -3.6065    0.0000    0.0000 C   0  0
   -5.0972    0.1560    0.0000 C   0  0
   -5.7073    1.5264    0.0000 C   0  0
   -4.8257    2.7399    0.0000 C   0  0
   -3.3339    2.5831    0.0000 C   0  0
   -2.7248    1.2135    0.0000 C   0  0
  1  2  2  0
  2  3  1  0
  2  4  1  0
  4  5  1  0
  5  6  1  0
  6  7  2  0
  7  8  1  0
  8  9  2  0
  9 10  1  0
 10 11  2  0
 11  6  1  0
 10 12  1  0
 12 13  1  0
 13 14  2  0
 14 15  1  0
 15 16  2  0
 16 17  1  0
 17 18  2  0
 18 13  1  0
 18  9  1  0
M  END
> <assay_chembl_id>
CHEMBL902979

> <assay_description>
Antiproliferative activity against human LnCAP cells after 72 hrs

> <document_journal>
J Med Chem

> <molecule_chembl_id>
CHEMBL236012

> <standard_value>
27500

> <IC50_uM>
27.5

> <Activity>
No

> <Canonical_Smiles>
N=C(N)NCc1ccc2c(c1)Cc1ccccc1-2

$$$$

  SciTegic03142313312D

 10 10  0  0  0  0            999 V2000
    1.2833   -6.2019    0.0000 N   0  0
    1.8954   -4.8324    0.0000 C   0  0
    3.3874   -4.6783    0.0000 N   0  0
    1.0157   -3.6164    0.0000 N   0  0
    1.6281   -2.2462    0.0000 C   0  0
    0.7500   -1.0323    0.0000 C   0  0
    1.2135    0.3943    0.0000 C   0  0
    0.0000    1.2760    0.0000 C   0  0
   -1.2135    0.3943    0.0000 C   0  0
   -0.7500   -1.0323    0.0000 S   0  0
  1  2  2  0
  2  3  1  0
  2  4  1  0
  4  5  1  0
  5  6  1  0
  6  7  2  0
  7  8  1  0
  8  9  2  0
  9 10  1  0
 10  6  1  0
M  END
> <assay_chembl_id>
CHEMBL902979

> <assay_description>
Antiproliferative activity against human LnCAP cells after 72 hrs

> <document_journal>
J Med Chem

> <molecule_chembl_id>
CHEMBL93064

> <standard_value>
64600

> <IC50_uM>
64.6

> <Activity>
No

> <Canonical_Smiles>
N=C(N)NCc1cccs1

$$$$

  SciTegic03142313312D

 27 30  0  0  0  0            999 V2000
   -3.9477   -7.1844    0.0000 O   0  0
   -2.8628   -6.1485    0.0000 C   0  0
   -1.4233   -6.5700    0.0000 C   0  0
   -0.3384   -5.5341    0.0000 C   0  0
    1.1012   -5.9552    0.0000 O   0  0
   -0.6928   -4.0817    0.0000 C   0  0
    0.3114   -2.9665    0.0000 C   0  0
    1.8032   -3.1233    0.0000 N   0  0
    2.4133   -1.7530    0.0000 O   0  0
    1.2990   -0.7500    0.0000 C   0  0
    1.2990    0.7500    0.0000 C   0  0
    0.0000    1.5000    0.0000 C   0  0
   -1.2990    0.7500    0.0000 C   0  0
   -2.6003    1.4977    0.0000 N   0  0
   -3.8990    0.7455    0.0000 C   0  0
   -5.2003    1.4932    0.0000 C   0  0
   -6.4990    0.7409    0.0000 N   0  0
   -7.8007    1.4864    0.0000 C   0  0
   -9.0971    0.7319    0.0000 C   0  0
   -9.0919   -0.7681    0.0000 O   0  0
   -7.7903   -1.5136    0.0000 C   0  0
   -6.4939   -0.7591    0.0000 C   0  0
   -1.2990   -0.7500    0.0000 C   0  0
    0.0000   -1.5000    0.0000 C   0  0
   -2.1327   -3.6551    0.0000 C   0  0
   -3.2175   -4.6910    0.0000 C   0  0
   -4.6571   -4.2695    0.0000 Cl  0  0
  1  2  1  0
  2  3  2  0
  3  4  1  0
  4  5  1  0
  4  6  2  0
  6  7  1  0
  7  8  2  0
  8  9  1  0
  9 10  1  0
 10 11  2  0
 11 12  1  0
 12 13  2  0
 13 14  1  0
 14 15  1  0
 15 16  1  0
 16 17  1  0
 17 18  1  0
 18 19  1  0
 19 20  1  0
 20 21  1  0
 21 22  1  0
 22 17  1  0
 13 23  1  0
 23 24  2  0
 24  7  1  0
 24 10  1  0
  6 25  1  0
 25 26  2  0
 26  2  1  0
 26 27  1  0
M  END
> <assay_chembl_id>
CHEMBL944011

> <assay_description>
Antiproliferation activity against human LnCap cells

> <document_journal>
J Med Chem

> <molecule_chembl_id>
CHEMBL404630

> <standard_value>
170

> <IC50_uM>
0.17

> <Activity>
Yes

> <Canonical_Smiles>
Oc1cc(O)c(-c2noc3ccc(NCCN4CCOCC4)cc23)cc1Cl

$$$$

  SciTegic03142313312D

 20 22  0  0  0  0            999 V2000
    2.6030   -2.9977    0.0000 C   0  0
    2.6003   -1.4977    0.0000 C   0  0
    3.8983   -0.7459    0.0000 O   0  0
    1.2990   -0.7500    0.0000 C   0  0
    1.2990    0.7500    0.0000 C   0  0
    0.0000    1.5000    0.0000 C   0  0
   -1.2990    0.7500    0.0000 C   0  0
   -1.2990   -0.7500    0.0000 C   0  0
    0.0000   -1.5000    0.0000 C   0  0
    0.0000   -3.0000    0.0000 C   0  0
    1.2990   -3.7500    0.0000 O   0  0
   -1.2990   -3.7500    0.0000 C   0  0
   -1.2990   -5.2500    0.0000 C   0  0
   -2.5981   -6.0000    0.0000 C   0  0
   -3.8971   -5.2500    0.0000 C   0  0
   -3.8971   -3.7500    0.0000 C   0  0
   -5.1961   -3.0000    0.0000 O   0  0
   -2.5981   -3.0000    0.0000 C   0  0
   -2.5981   -1.5000    0.0000 C   0  0
   -3.8971   -0.7500    0.0000 O   0  0
  1  2  1  0
  2  3  2  0
  2  4  1  0
  4  5  2  0
  5  6  1  0
  6  7  2  0
  7  8  1  0
  8  9  2  0
  9  4  1  0
  9 10  1  0
 10 11  2  0
 10 12  1  0
 12 13  2  0
 13 14  1  0
 14 15  2  0
 15 16  1  0
 16 17  1  0
 16 18  2  0
 18 12  1  0
 18 19  1  0
 19  8  1  0
 19 20  2  0
M  END
> <assay_chembl_id>
CHEMBL929984

> <assay_description>
Antiproliferative activity against human LNCaP cells after 72 hrs by MTS assay

> <document_journal>
Bioorg Med Chem Lett

> <molecule_chembl_id>
CHEMBL256439

> <standard_value>
34100

> <IC50_uM>
34.1

> <Activity>
No

> <Canonical_Smiles>
CC(=O)c1cccc2c1C(=O)c1cccc(O)c1C2=O

$$$$

  SciTegic03142313312D

 20 22  0  0  0  0            999 V2000
    2.6030   -2.9977    0.0000 C   0  0
    2.6003   -1.4977    0.0000 C   0  0
    3.8983   -0.7459    0.0000 O   0  0
    1.2990   -0.7500    0.0000 C   0  0
    1.2990    0.7500    0.0000 C   0  0
    0.0000    1.5000    0.0000 C   0  0
   -1.2990    0.7500    0.0000 C   0  0
   -1.2990   -0.7500    0.0000 C   0  0
    0.0000   -1.5000    0.0000 C   0  0
    0.0000   -3.0000    0.0000 C   0  0
    1.2990   -3.7500    0.0000 O   0  0
   -1.2990   -3.7500    0.0000 C   0  0
   -1.2990   -5.2500    0.0000 C   0  0
    0.0000   -6.0000    0.0000 O   0  0
   -2.5981   -6.0000    0.0000 C   0  0
   -3.8971   -5.2500    0.0000 C   0  0
   -3.8971   -3.7500    0.0000 C   0  0
   -2.5981   -3.0000    0.0000 C   0  0
   -2.5981   -1.5000    0.0000 C   0  0
   -3.8971   -0.7500    0.0000 O   0  0
  1  2  1  0
  2  3  2  0
  2  4  1  0
  4  5  2  0
  5  6  1  0
  6  7  2  0
  7  8  1  0
  8  9  2  0
  9  4  1  0
  9 10  1  0
 10 11  2  0
 10 12  1  0
 12 13  2  0
 13 14  1  0
 13 15  1  0
 15 16  2  0
 16 17  1  0
 17 18  2  0
 18 12  1  0
 18 19  1  0
 19  8  1  0
 19 20  2  0
M  END
> <assay_chembl_id>
CHEMBL929984

> <assay_description>
Antiproliferative activity against human LNCaP cells after 72 hrs by MTS assay

> <document_journal>
Bioorg Med Chem Lett

> <molecule_chembl_id>
CHEMBL403374

> <standard_value>
31500

> <IC50_uM>
31.5

> <Activity>
No

> <Canonical_Smiles>
CC(=O)c1cccc2c1C(=O)c1c(O)cccc1C2=O

$$$$

  SciTegic03142313312D

  7  6  0  0  0  0            999 V2000
    0.0007    0.0004    0.0000 C   0  0
    1.3000    0.7500    0.0000 C   0  0
    2.6000    0.0000    0.0000 C   0  0
    3.9000    0.7500    0.0000 S   0  0  3  0  0  0
    3.9000    2.2500    0.0000 O   0  0
    5.2000    0.0000    0.0000 S   0  0
    6.4992    0.7496    0.0000 C   0  0
  1  2  2  0
  2  3  1  0
  4  3  1  4
  4  5  2  0
  4  6  1  0
  6  7  1  0
M  END
> <assay_chembl_id>
CHEMBL945773

> <assay_description>
Cytotoxicity against human LNCap cells after 24 hrs by SRB assay

> <document_journal>
Bioorg Med Chem Lett

> <molecule_chembl_id>
CHEMBL255815

> <standard_value>
29700

> <IC50_uM>
29.7

> <Activity>
No

> <Canonical_Smiles>
C=CC[S+]([O-])SC

$$$$

  SciTegic03142313312D

 36 39  0  0  1  0            999 V2000
    5.8881    0.9278    0.0000 C   0  0
    4.4112    0.6652    0.0000 C   0  0
    3.8990   -0.7455    0.0000 N   0  0
    2.6003   -1.4977    0.0000 C   0  0
    1.2990   -0.7500    0.0000 C   0  0
    0.0031   -1.5053    0.0000 C   0  0
    0.0093   -3.0053    0.0000 O   0  0
   -1.2990   -0.7607    0.0000 O   0  0
   -1.3052    0.7393    0.0000 C   0  0  2  0  0  0
   -2.6096    1.4817    0.0000 C   0  0
   -3.9051    0.7241    0.0000 O   0  0
   -5.2088    1.4661    0.0000 C   0  0
   -0.0092    1.4946    0.0000 C   0  0  1  0  0  0
   -1.3114    2.2393    0.0000 C   0  0
    1.2929    0.7500    0.0000 C   0  0
    2.5888    1.5053    0.0000 C   0  0
    3.8909    0.7607    0.0000 O   0  0
    2.5826    3.0053    0.0000 C   0  0
    3.8786    3.7607    0.0000 O   0  0
    1.2805    3.7500    0.0000 C   0  0
   -0.0154    2.9946    0.0000 C   0  0
   -1.3175    3.7393    0.0000 C   0  0  2  0  0  0
   -2.6126    2.9809    0.0000 O   0  0
   -3.9175    3.7224    0.0000 C   0  0
   -3.9272    5.2224    0.0000 C   0  0
   -5.2119    2.9644    0.0000 O   0  0
   -1.3237    5.2393    0.0000 C   0  0
   -0.0278    5.9946    0.0000 C   0  0  2  0  0  0
   -1.2525    6.8606    0.0000 C   0  0
    0.2513    7.4624    0.0000 C   0  0  1  0  0  0
   -0.7702    8.5609    0.0000 O   0  0
    1.7413    7.6348    0.0000 C   0  0
    2.3658    6.2710    0.0000 C   0  0
    1.2744    5.2500    0.0000 C   0  0  1  0  0  0
    5.1981   -1.4971    0.0000 C   0  0
    5.1976   -2.9971    0.0000 C   0  0
  1  2  1  0
  2  3  1  0
  3  4  1  0
  4  5  2  0
  5  6  1  0
  6  7  2  0
  6  8  1  0
  8  9  1  0
  9 10  1  6
 10 11  1  0
 11 12  1  0
  9 13  1  0
 13 14  1  1
 13 15  1  0
 15  5  1  0
 15 16  2  0
 16 17  1  0
 16 18  1  0
 18 19  2  0
 18 20  1  0
 20 21  2  0
 21 13  1  0
 21 22  1  0
 22 23  1  6
 23 24  1  0
 24 25  1  0
 24 26  2  0
 22 27  1  0
 27 28  1  0
 28 29  1  1
 28 30  1  0
 30 31  1  1
 30 32  1  0
 32 33  1  0
 34 33  1  1
 34 20  1  0
 34 28  1  0
  3 35  1  0
 35 36  1  0
M  END
> <assay_chembl_id>
CHEMBL950966

> <assay_description>
Growth inhibition of human LNCap cells

> <document_journal>
J Med Chem

> <molecule_chembl_id>
CHEMBL272197

> <standard_value>
160

> <IC50_uM>
0.16

> <Activity>
Yes

> <Canonical_Smiles>
CCN(/C=C1/C(=O)O[C@H](COC)[C@@]2(C)C1=C(O)C(=O)C1=C2[C@H](OC(C)=O)C[C@]2(C)[C@@H](O)CC[C@@H]12)CC

$$$$

  SciTegic03142313312D

 38 42  0  0  1  0            999 V2000
    5.4201    1.7547    0.0000 C   0  0
    3.9423    2.0122    0.0000 O   0  0
    2.9793    0.8611    0.0000 C   0  0
    1.5007    1.1187    0.0000 C   0  0  1  0  0  0
    0.9877    2.5282    0.0000 O   0  0
   -0.4896    2.7887    0.0000 C   0  0
   -1.0026    4.1982    0.0000 O   0  0
   -1.4537    1.6396    0.0000 C   0  0
   -2.9312    1.9033    0.0000 C   0  0
   -3.8990    0.7562    0.0000 N   0  0
   -5.1976    1.5069    0.0000 C   0  0
   -6.4972    0.7578    0.0000 C   0  0
   -6.4981   -0.7422    0.0000 C   0  0
   -7.7977   -1.4914    0.0000 O   0  0
   -5.1996   -1.4931    0.0000 C   0  0
   -3.9001   -0.7439    0.0000 C   0  0
   -0.9407    0.2301    0.0000 C   0  0
   -1.9049   -0.9190    0.0000 C   0  0
   -3.3821   -0.6585    0.0000 O   0  0
   -1.3918   -2.3285    0.0000 C   0  0
   -2.3560   -3.4776    0.0000 O   0  0
    0.0854   -2.5890    0.0000 C   0  0
    1.0496   -1.4399    0.0000 C   0  0
    2.5268   -1.7004    0.0000 C   0  0  2  0  0  0
    3.4891   -0.5487    0.0000 O   0  0
    4.9678   -0.8053    0.0000 C   0  0
    5.4842   -2.2136    0.0000 C   0  0
    5.9296    0.3457    0.0000 O   0  0
    3.0398   -3.1099    0.0000 C   0  0
    2.0756   -4.2590    0.0000 C   0  0  2  0  0  0
    3.5211   -4.6598    0.0000 C   0  0
    2.3094   -5.7347    0.0000 C   0  0  1  0  0  0
    3.6421   -6.4230    0.0000 O   0  0
    0.9654   -6.4008    0.0000 C   0  0
   -0.0835   -5.3285    0.0000 C   0  0
    0.5984   -3.9985    0.0000 C   0  0  1  0  0  0
    0.5365   -0.0304    0.0000 C   0  0  1  0  0  0
    2.0137   -0.2909    0.0000 C   0  0
  1  2  1  0
  2  3  1  0
  4  3  1  6
  4  5  1  0
  5  6  1  0
  6  7  2  0
  6  8  1  0
  8  9  2  0
  9 10  1  0
 10 11  1  0
 11 12  1  0
 12 13  1  0
 13 14  2  0
 13 15  1  0
 15 16  1  0
 16 10  1  0
  8 17  1  0
 17 18  2  0
 18 19  1  0
 18 20  1  0
 20 21  2  0
 20 22  1  0
 22 23  2  0
 23 24  1  0
 24 25  1  6
 25 26  1  0
 26 27  1  0
 26 28  2  0
 24 29  1  0
 29 30  1  0
 30 31  1  1
 30 32  1  0
 32 33  1  1
 32 34  1  0
 34 35  1  0
 36 35  1  1
 36 22  1  0
 36 30  1  0
 23 37  1  0
 37 17  1  0
 37  4  1  0
 37 38  1  1
M  END
> <assay_chembl_id>
CHEMBL950966

> <assay_description>
Growth inhibition of human LNCap cells

> <document_journal>
J Med Chem

> <molecule_chembl_id>
CHEMBL260313

> <standard_value>
699

> <IC50_uM>
0.699

> <Activity>
Yes

> <Canonical_Smiles>
COC[C@H]1OC(=O)/C(=C/N2CCC(=O)CC2)C2=C(O)C(=O)C3=C([C@H](OC(C)=O)C[C@]4(C)[C@@H](O)CC[C@@H]34)[C@]21C

$$$$

  SciTegic03142313312D

 37 41  0  0  1  0            999 V2000
    5.4201    1.7547    0.0000 C   0  0
    3.9423    2.0122    0.0000 O   0  0
    2.9793    0.8611    0.0000 C   0  0
    1.5007    1.1187    0.0000 C   0  0  1  0  0  0
    0.9877    2.5282    0.0000 O   0  0
   -0.4896    2.7887    0.0000 C   0  0
   -1.0026    4.1982    0.0000 O   0  0
   -1.4537    1.6396    0.0000 C   0  0
   -2.9312    1.9033    0.0000 C   0  0
   -3.8990    0.7562    0.0000 N   0  0
   -5.1976    1.5069    0.0000 C   0  0
   -6.4972    0.7578    0.0000 C   0  0
   -6.4981   -0.7422    0.0000 O   0  0
   -5.1996   -1.4931    0.0000 C   0  0
   -3.9001   -0.7439    0.0000 C   0  0
   -0.9407    0.2301    0.0000 C   0  0
   -1.9049   -0.9190    0.0000 C   0  0
   -3.3821   -0.6585    0.0000 O   0  0
   -1.3918   -2.3285    0.0000 C   0  0
   -2.3560   -3.4776    0.0000 O   0  0
    0.0854   -2.5890    0.0000 C   0  0
    1.0496   -1.4399    0.0000 C   0  0
    2.5268   -1.7004    0.0000 C   0  0  2  0  0  0
    3.4891   -0.5487    0.0000 O   0  0
    4.9678   -0.8053    0.0000 C   0  0
    5.4842   -2.2136    0.0000 C   0  0
    5.9296    0.3457    0.0000 O   0  0
    3.0398   -3.1099    0.0000 C   0  0
    2.0756   -4.2590    0.0000 C   0  0  2  0  0  0
    3.5211   -4.6598    0.0000 C   0  0
    2.3094   -5.7347    0.0000 C   0  0  1  0  0  0
    3.6421   -6.4230    0.0000 O   0  0
    0.9654   -6.4008    0.0000 C   0  0
   -0.0835   -5.3285    0.0000 C   0  0
    0.5984   -3.9985    0.0000 C   0  0  1  0  0  0
    0.5365   -0.0304    0.0000 C   0  0  1  0  0  0
    2.0137   -0.2909    0.0000 C   0  0
  1  2  1  0
  2  3  1  0
  4  3  1  6
  4  5  1  0
  5  6  1  0
  6  7  2  0
  6  8  1  0
  8  9  2  0
  9 10  1  0
 10 11  1  0
 11 12  1  0
 12 13  1  0
 13 14  1  0
 14 15  1  0
 15 10  1  0
  8 16  1  0
 16 17  2  0
 17 18  1  0
 17 19  1  0
 19 20  2  0
 19 21  1  0
 21 22  2  0
 22 23  1  0
 23 24  1  6
 24 25  1  0
 25 26  1  0
 25 27  2  0
 23 28  1  0
 28 29  1  0
 29 30  1  1
 29 31  1  0
 31 32  1  1
 31 33  1  0
 33 34  1  0
 35 34  1  1
 35 21  1  0
 35 29  1  0
 22 36  1  0
 36 16  1  0
 36  4  1  0
 36 37  1  1
M  END
> <assay_chembl_id>
CHEMBL950966

> <assay_description>
Growth inhibition of human LNCap cells

> <document_journal>
J Med Chem

> <molecule_chembl_id>
CHEMBL411950

> <standard_value>
966

> <IC50_uM>
0.966

> <Activity>
Yes

> <Canonical_Smiles>
COC[C@H]1OC(=O)/C(=C/N2CCOCC2)C2=C(O)C(=O)C3=C([C@H](OC(C)=O)C[C@]4(C)[C@@H](O)CC[C@@H]34)[C@]21C

$$$$

  SciTegic03142313312D

 40 44  0  0  1  0            999 V2000
    5.4201    1.7547    0.0000 C   0  0
    3.9423    2.0122    0.0000 O   0  0
    2.9793    0.8611    0.0000 C   0  0
    1.5007    1.1187    0.0000 C   0  0  1  0  0  0
    0.9877    2.5282    0.0000 O   0  0
   -0.4896    2.7887    0.0000 C   0  0
   -1.0026    4.1982    0.0000 O   0  0
   -1.4537    1.6396    0.0000 C   0  0
   -2.9312    1.9033    0.0000 C   0  0
   -3.8990    0.7562    0.0000 N   0  0
   -5.1976    1.5069    0.0000 C   0  0
   -6.4972    0.7578    0.0000 C   0  0
   -6.4981   -0.7422    0.0000 C   0  0
   -7.7969   -1.4945    0.0000 C   0  0
   -7.7957   -2.9945    0.0000 O   0  0
   -9.0967   -0.7459    0.0000 O   0  0
   -5.1996   -1.4931    0.0000 C   0  0
   -3.9001   -0.7439    0.0000 C   0  0
   -0.9407    0.2301    0.0000 C   0  0
   -1.9049   -0.9190    0.0000 C   0  0
   -3.3821   -0.6585    0.0000 O   0  0
   -1.3918   -2.3285    0.0000 C   0  0
   -2.3560   -3.4776    0.0000 O   0  0
    0.0854   -2.5890    0.0000 C   0  0
    1.0496   -1.4399    0.0000 C   0  0
    2.5268   -1.7004    0.0000 C   0  0  2  0  0  0
    3.4891   -0.5487    0.0000 O   0  0
    4.9678   -0.8053    0.0000 C   0  0
    5.4842   -2.2136    0.0000 C   0  0
    5.9296    0.3457    0.0000 O   0  0
    3.0398   -3.1099    0.0000 C   0  0
    2.0756   -4.2590    0.0000 C   0  0  2  0  0  0
    3.5211   -4.6598    0.0000 C   0  0
    2.3094   -5.7347    0.0000 C   0  0  1  0  0  0
    3.6421   -6.4230    0.0000 O   0  0
    0.9654   -6.4008    0.0000 C   0  0
   -0.0835   -5.3285    0.0000 C   0  0
    0.5984   -3.9985    0.0000 C   0  0  1  0  0  0
    0.5365   -0.0304    0.0000 C   0  0  1  0  0  0
    2.0137   -0.2909    0.0000 C   0  0
  1  2  1  0
  2  3  1  0
  4  3  1  6
  4  5  1  0
  5  6  1  0
  6  7  2  0
  6  8  1  0
  8  9  2  0
  9 10  1  0
 10 11  1  0
 11 12  1  0
 12 13  1  0
 13 14  1  0
 14 15  2  0
 14 16  1  0
 13 17  1  0
 17 18  1  0
 18 10  1  0
  8 19  1  0
 19 20  2  0
 20 21  1  0
 20 22  1  0
 22 23  2  0
 22 24  1  0
 24 25  2  0
 25 26  1  0
 26 27  1  6
 27 28  1  0
 28 29  1  0
 28 30  2  0
 26 31  1  0
 31 32  1  0
 32 33  1  1
 32 34  1  0
 34 35  1  1
 34 36  1  0
 36 37  1  0
 38 37  1  1
 38 24  1  0
 38 32  1  0
 25 39  1  0
 39 19  1  0
 39  4  1  0
 39 40  1  1
M  END
> <assay_chembl_id>
CHEMBL950966

> <assay_description>
Growth inhibition of human LNCap cells

> <document_journal>
J Med Chem

> <molecule_chembl_id>
CHEMBL410071

> <standard_value>
500

> <IC50_uM>
0.5

> <Activity>
Yes

> <Canonical_Smiles>
COC[C@H]1OC(=O)/C(=C/N2CCC(C(=O)O)CC2)C2=C(O)C(=O)C3=C([C@H](OC(C)=O)C[C@]4(C)[C@@H](O)CC[C@@H]34)[C@]21C

$$$$

  SciTegic03142313312D

 41 45  0  0  1  0            999 V2000
    5.4201    1.7547    0.0000 C   0  0
    3.9423    2.0122    0.0000 O   0  0
    2.9793    0.8611    0.0000 C   0  0
    1.5007    1.1187    0.0000 C   0  0  1  0  0  0
    0.9877    2.5282    0.0000 O   0  0
   -0.4896    2.7887    0.0000 C   0  0
   -1.0026    4.1982    0.0000 O   0  0
   -1.4537    1.6396    0.0000 C   0  0
   -2.9312    1.9033    0.0000 C   0  0
   -3.8990    0.7562    0.0000 N   0  0
   -5.1976    1.5069    0.0000 C   0  0
   -6.4972    0.7578    0.0000 C   0  0
   -6.4981   -0.7422    0.0000 C   0  0
   -7.7969   -1.4945    0.0000 C   0  0
   -9.0967   -0.7459    0.0000 O   0  0
   -7.7957   -2.9953    0.0000 O   0  0
   -9.0937   -3.7471    0.0000 C   0  0
   -5.1996   -1.4931    0.0000 C   0  0
   -3.9001   -0.7439    0.0000 C   0  0
   -0.9407    0.2301    0.0000 C   0  0
   -1.9049   -0.9190    0.0000 C   0  0
   -3.3821   -0.6585    0.0000 O   0  0
   -1.3918   -2.3285    0.0000 C   0  0
   -2.3560   -3.4776    0.0000 O   0  0
    0.0854   -2.5890    0.0000 C   0  0
    1.0496   -1.4399    0.0000 C   0  0
    2.5268   -1.7004    0.0000 C   0  0  2  0  0  0
    3.4891   -0.5487    0.0000 O   0  0
    4.9678   -0.8053    0.0000 C   0  0
    5.4842   -2.2136    0.0000 C   0  0
    5.9296    0.3457    0.0000 O   0  0
    3.0398   -3.1099    0.0000 C   0  0
    2.0756   -4.2590    0.0000 C   0  0  2  0  0  0
    3.5211   -4.6598    0.0000 C   0  0
    2.3094   -5.7347    0.0000 C   0  0  1  0  0  0
    3.6421   -6.4230    0.0000 O   0  0
    0.9654   -6.4008    0.0000 C   0  0
   -0.0835   -5.3285    0.0000 C   0  0
    0.5984   -3.9985    0.0000 C   0  0  1  0  0  0
    0.5365   -0.0304    0.0000 C   0  0  1  0  0  0
    2.0137   -0.2909    0.0000 C   0  0
  1  2  1  0
  2  3  1  0
  4  3  1  6
  4  5  1  0
  5  6  1  0
  6  7  2  0
  6  8  1  0
  8  9  2  0
  9 10  1  0
 10 11  1  0
 11 12  1  0
 12 13  1  0
 13 14  1  0
 14 15  2  0
 14 16  1  0
 16 17  1  0
 13 18  1  0
 18 19  1  0
 19 10  1  0
  8 20  1  0
 20 21  2  0
 21 22  1  0
 21 23  1  0
 23 24  2  0
 23 25  1  0
 25 26  2  0
 26 27  1  0
 27 28  1  6
 28 29  1  0
 29 30  1  0
 29 31  2  0
 27 32  1  0
 32 33  1  0
 33 34  1  1
 33 35  1  0
 35 36  1  1
 35 37  1  0
 37 38  1  0
 39 38  1  1
 39 25  1  0
 39 33  1  0
 26 40  1  0
 40 20  1  0
 40  4  1  0
 40 41  1  1
M  END
> <assay_chembl_id>
CHEMBL950966

> <assay_description>
Growth inhibition of human LNCap cells

> <document_journal>
J Med Chem

> <molecule_chembl_id>
CHEMBL273038

> <standard_value>
506

> <IC50_uM>
0.506

> <Activity>
Yes

> <Canonical_Smiles>
COC[C@H]1OC(=O)/C(=C/N2CCC(C(=O)OC)CC2)C2=C(O)C(=O)C3=C([C@H](OC(C)=O)C[C@]4(C)[C@@H](O)CC[C@@H]34)[C@]21C

$$$$

  SciTegic03142313312D

 46 51  0  0  1  0            999 V2000
    5.4201    1.7547    0.0000 C   0  0
    3.9423    2.0122    0.0000 O   0  0
    2.9793    0.8611    0.0000 C   0  0
    1.5007    1.1187    0.0000 C   0  0  1  0  0  0
    0.9877    2.5282    0.0000 O   0  0
   -0.4896    2.7887    0.0000 C   0  0
   -1.0026    4.1982    0.0000 O   0  0
   -1.4537    1.6396    0.0000 C   0  0
   -2.9312    1.9033    0.0000 C   0  0
   -3.8990    0.7562    0.0000 N   0  0
   -5.1976    1.5069    0.0000 C   0  0
   -6.4972    0.7578    0.0000 C   0  0
   -6.4981   -0.7422    0.0000 N   0  0
   -7.7969   -1.4945    0.0000 C   0  0
   -7.7957   -2.9953    0.0000 C   0  0
   -9.0944   -3.7475    0.0000 C   0  0
   -9.0932   -5.2483    0.0000 N   0  0
  -10.3901   -6.0021    0.0000 C   0  0
  -10.3859   -7.5021    0.0000 C   0  0
   -9.0848   -8.2484    0.0000 O   0  0
   -7.7879   -7.4948    0.0000 C   0  0
   -7.7921   -5.9948    0.0000 C   0  0
   -5.1996   -1.4931    0.0000 C   0  0
   -3.9001   -0.7439    0.0000 C   0  0
   -0.9407    0.2301    0.0000 C   0  0
   -1.9049   -0.9190    0.0000 C   0  0
   -3.3821   -0.6585    0.0000 O   0  0
   -1.3918   -2.3285    0.0000 C   0  0
   -2.3560   -3.4776    0.0000 O   0  0
    0.0854   -2.5890    0.0000 C   0  0
    1.0496   -1.4399    0.0000 C   0  0
    2.5268   -1.7004    0.0000 C   0  0  2  0  0  0
    3.4891   -0.5487    0.0000 O   0  0
    4.9678   -0.8053    0.0000 C   0  0
    5.4842   -2.2136    0.0000 C   0  0
    5.9296    0.3457    0.0000 O   0  0
    3.0398   -3.1099    0.0000 C   0  0
    2.0756   -4.2590    0.0000 C   0  0  2  0  0  0
    3.5211   -4.6598    0.0000 C   0  0
    2.3094   -5.7347    0.0000 C   0  0  1  0  0  0
    3.6421   -6.4230    0.0000 O   0  0
    0.9654   -6.4008    0.0000 C   0  0
   -0.0835   -5.3285    0.0000 C   0  0
    0.5984   -3.9985    0.0000 C   0  0  1  0  0  0
    0.5365   -0.0304    0.0000 C   0  0  1  0  0  0
    2.0137   -0.2909    0.0000 C   0  0
  1  2  1  0
  2  3  1  0
  4  3  1  6
  4  5  1  0
  5  6  1  0
  6  7  2  0
  6  8  1  0
  8  9  2  0
  9 10  1  0
 10 11  1  0
 11 12  1  0
 12 13  1  0
 13 14  1  0
 14 15  1  0
 15 16  1  0
 16 17  1  0
 17 18  1  0
 18 19  1  0
 19 20  1  0
 20 21  1  0
 21 22  1  0
 22 17  1  0
 13 23  1  0
 23 24  1  0
 24 10  1  0
  8 25  1  0
 25 26  2  0
 26 27  1  0
 26 28  1  0
 28 29  2  0
 28 30  1  0
 30 31  2  0
 31 32  1  0
 32 33  1  6
 33 34  1  0
 34 35  1  0
 34 36  2  0
 32 37  1  0
 37 38  1  0
 38 39  1  1
 38 40  1  0
 40 41  1  1
 40 42  1  0
 42 43  1  0
 44 43  1  1
 44 30  1  0
 44 38  1  0
 31 45  1  0
 45 25  1  0
 45  4  1  0
 45 46  1  1
M  END
> <assay_chembl_id>
CHEMBL950966

> <assay_description>
Growth inhibition of human LNCap cells

> <document_journal>
J Med Chem

> <molecule_chembl_id>
CHEMBL408074

> <standard_value>
637

> <IC50_uM>
0.637

> <Activity>
Yes

> <Canonical_Smiles>
COC[C@H]1OC(=O)/C(=C/N2CCN(CCCN3CCOCC3)CC2)C2=C(O)C(=O)C3=C([C@H](OC(C)=O)C[C@]4(C)[C@@H](O)CC[C@@H]34)[C@]21C

$$$$

  SciTegic03142313312D

 45 50  0  0  1  0            999 V2000
    5.4201    1.7547    0.0000 C   0  0
    3.9423    2.0122    0.0000 O   0  0
    2.9793    0.8611    0.0000 C   0  0
    1.5007    1.1187    0.0000 C   0  0  1  0  0  0
    0.9877    2.5282    0.0000 O   0  0
   -0.4896    2.7887    0.0000 C   0  0
   -1.0026    4.1982    0.0000 O   0  0
   -1.4537    1.6396    0.0000 C   0  0
   -2.9312    1.9033    0.0000 C   0  0
   -3.8990    0.7562    0.0000 N   0  0
   -5.1976    1.5069    0.0000 C   0  0
   -6.4972    0.7578    0.0000 C   0  0
   -6.4981   -0.7422    0.0000 N   0  0
   -7.7969   -1.4945    0.0000 C   0  0
   -7.7957   -2.9953    0.0000 C   0  0
   -9.0944   -3.7475    0.0000 N   0  0
   -9.0954   -5.2476    0.0000 C   0  0
  -10.3949   -5.9967    0.0000 C   0  0
  -11.6935   -5.2459    0.0000 O   0  0
  -11.6926   -3.7459    0.0000 C   0  0
  -10.3930   -2.9967    0.0000 C   0  0
   -5.1996   -1.4931    0.0000 C   0  0
   -3.9001   -0.7439    0.0000 C   0  0
   -0.9407    0.2301    0.0000 C   0  0
   -1.9049   -0.9190    0.0000 C   0  0
   -3.3821   -0.6585    0.0000 O   0  0
   -1.3918   -2.3285    0.0000 C   0  0
   -2.3560   -3.4776    0.0000 O   0  0
    0.0854   -2.5890    0.0000 C   0  0
    1.0496   -1.4399    0.0000 C   0  0
    2.5268   -1.7004    0.0000 C   0  0  2  0  0  0
    3.4891   -0.5487    0.0000 O   0  0
    4.9678   -0.8053    0.0000 C   0  0
    5.4842   -2.2136    0.0000 C   0  0
    5.9296    0.3457    0.0000 O   0  0
    3.0398   -3.1099    0.0000 C   0  0
    2.0756   -4.2590    0.0000 C   0  0  2  0  0  0
    3.5211   -4.6598    0.0000 C   0  0
    2.3094   -5.7347    0.0000 C   0  0  1  0  0  0
    3.6421   -6.4230    0.0000 O   0  0
    0.9654   -6.4008    0.0000 C   0  0
   -0.0835   -5.3285    0.0000 C   0  0
    0.5984   -3.9985    0.0000 C   0  0  1  0  0  0
    0.5365   -0.0304    0.0000 C   0  0  1  0  0  0
    2.0137   -0.2909    0.0000 C   0  0
  1  2  1  0
  2  3  1  0
  4  3  1  6
  4  5  1  0
  5  6  1  0
  6  7  2  0
  6  8  1  0
  8  9  2  0
  9 10  1  0
 10 11  1  0
 11 12  1  0
 12 13  1  0
 13 14  1  0
 14 15  1  0
 15 16  1  0
 16 17  1  0
 17 18  1  0
 18 19  1  0
 19 20  1  0
 20 21  1  0
 21 16  1  0
 13 22  1  0
 22 23  1  0
 23 10  1  0
  8 24  1  0
 24 25  2  0
 25 26  1  0
 25 27  1  0
 27 28  2  0
 27 29  1  0
 29 30  2  0
 30 31  1  0
 31 32  1  6
 32 33  1  0
 33 34  1  0
 33 35  2  0
 31 36  1  0
 36 37  1  0
 37 38  1  1
 37 39  1  0
 39 40  1  1
 39 41  1  0
 41 42  1  0
 43 42  1  1
 43 29  1  0
 43 37  1  0
 30 44  1  0
 44 24  1  0
 44  4  1  0
 44 45  1  1
M  END
> <assay_chembl_id>
CHEMBL950966

> <assay_description>
Growth inhibition of human LNCap cells

> <document_journal>
J Med Chem

> <molecule_chembl_id>
CHEMBL271982

> <standard_value>
794

> <IC50_uM>
0.794

> <Activity>
Yes

> <Canonical_Smiles>
COC[C@H]1OC(=O)/C(=C/N2CCN(CCN3CCOCC3)CC2)C2=C(O)C(=O)C3=C([C@H](OC(C)=O)C[C@]4(C)[C@@H](O)CC[C@@H]34)[C@]21C

$$$$

  SciTegic03142313312D

 43 47  0  0  1  0            999 V2000
    5.4201    1.7547    0.0000 C   0  0
    3.9423    2.0122    0.0000 O   0  0
    2.9793    0.8611    0.0000 C   0  0
    1.5007    1.1187    0.0000 C   0  0  1  0  0  0
    0.9877    2.5282    0.0000 O   0  0
   -0.4896    2.7887    0.0000 C   0  0
   -1.0026    4.1982    0.0000 O   0  0
   -1.4537    1.6396    0.0000 C   0  0
   -2.9312    1.9033    0.0000 C   0  0
   -3.8990    0.7562    0.0000 N   0  0
   -5.1976    1.5069    0.0000 C   0  0
   -6.4972    0.7578    0.0000 C   0  0
   -6.4981   -0.7422    0.0000 N   0  0
   -7.7969   -1.4945    0.0000 C   0  0
   -7.7957   -2.9953    0.0000 C   0  0
   -9.0944   -3.7475    0.0000 C   0  0
   -9.0932   -5.2483    0.0000 N   0  0
  -10.3912   -6.0002    0.0000 C   0  0
   -7.7934   -5.9969    0.0000 C   0  0
   -5.1996   -1.4931    0.0000 C   0  0
   -3.9001   -0.7439    0.0000 C   0  0
   -0.9407    0.2301    0.0000 C   0  0
   -1.9049   -0.9190    0.0000 C   0  0
   -3.3821   -0.6585    0.0000 O   0  0
   -1.3918   -2.3285    0.0000 C   0  0
   -2.3560   -3.4776    0.0000 O   0  0
    0.0854   -2.5890    0.0000 C   0  0
    1.0496   -1.4399    0.0000 C   0  0
    2.5268   -1.7004    0.0000 C   0  0  2  0  0  0
    3.4891   -0.5487    0.0000 O   0  0
    4.9678   -0.8053    0.0000 C   0  0
    5.4842   -2.2136    0.0000 C   0  0
    5.9296    0.3457    0.0000 O   0  0
    3.0398   -3.1099    0.0000 C   0  0
    2.0756   -4.2590    0.0000 C   0  0  2  0  0  0
    3.5211   -4.6598    0.0000 C   0  0
    2.3094   -5.7347    0.0000 C   0  0  1  0  0  0
    3.6421   -6.4230    0.0000 O   0  0
    0.9654   -6.4008    0.0000 C   0  0
   -0.0835   -5.3285    0.0000 C   0  0
    0.5984   -3.9985    0.0000 C   0  0  1  0  0  0
    0.5365   -0.0304    0.0000 C   0  0  1  0  0  0
    2.0137   -0.2909    0.0000 C   0  0
  1  2  1  0
  2  3  1  0
  4  3  1  6
  4  5  1  0
  5  6  1  0
  6  7  2  0
  6  8  1  0
  8  9  2  0
  9 10  1  0
 10 11  1  0
 11 12  1  0
 12 13  1  0
 13 14  1  0
 14 15  1  0
 15 16  1  0
 16 17  1  0
 17 18  1  0
 17 19  1  0
 13 20  1  0
 20 21  1  0
 21 10  1  0
  8 22  1  0
 22 23  2  0
 23 24  1  0
 23 25  1  0
 25 26  2  0
 25 27  1  0
 27 28  2  0
 28 29  1  0
 29 30  1  6
 30 31  1  0
 31 32  1  0
 31 33  2  0
 29 34  1  0
 34 35  1  0
 35 36  1  1
 35 37  1  0
 37 38  1  1
 37 39  1  0
 39 40  1  0
 41 40  1  1
 41 27  1  0
 41 35  1  0
 28 42  1  0
 42 22  1  0
 42  4  1  0
 42 43  1  1
M  END
> <assay_chembl_id>
CHEMBL950966

> <assay_description>
Growth inhibition of human LNCap cells

> <document_journal>
J Med Chem

> <molecule_chembl_id>
CHEMBL271780

> <standard_value>
831

> <IC50_uM>
0.831

> <Activity>
Yes

> <Canonical_Smiles>
COC[C@H]1OC(=O)/C(=C/N2CCN(CCCN(C)C)CC2)C2=C(O)C(=O)C3=C([C@H](OC(C)=O)C[C@]4(C)[C@@H](O)CC[C@@H]34)[C@]21C

$$$$

  SciTegic03142313312D

 43 48  0  0  1  0            999 V2000
    5.4201    1.7547    0.0000 C   0  0
    3.9423    2.0122    0.0000 O   0  0
    2.9793    0.8611    0.0000 C   0  0
    1.5007    1.1187    0.0000 C   0  0  1  0  0  0
    0.9877    2.5282    0.0000 O   0  0
   -0.4896    2.7887    0.0000 C   0  0
   -1.0026    4.1982    0.0000 O   0  0
   -1.4537    1.6396    0.0000 C   0  0
   -2.9312    1.9033    0.0000 C   0  0
   -3.8990    0.7562    0.0000 N   0  0
   -5.1976    1.5069    0.0000 C   0  0
   -6.4972    0.7578    0.0000 C   0  0
   -6.4981   -0.7422    0.0000 N   0  0
   -7.7983   -1.4917    0.0000 C   0  0
   -9.0982   -0.7430    0.0000 C   0  0
  -10.3965   -1.4942    0.0000 C   0  0
  -10.3951   -2.9942    0.0000 C   0  0
   -9.0954   -3.7430    0.0000 C   0  0
   -7.7970   -2.9918    0.0000 C   0  0
   -5.1996   -1.4931    0.0000 C   0  0
   -3.9001   -0.7439    0.0000 C   0  0
   -0.9407    0.2301    0.0000 C   0  0
   -1.9049   -0.9190    0.0000 C   0  0
   -3.3821   -0.6585    0.0000 O   0  0
   -1.3918   -2.3285    0.0000 C   0  0
   -2.3560   -3.4776    0.0000 O   0  0
    0.0854   -2.5890    0.0000 C   0  0
    1.0496   -1.4399    0.0000 C   0  0
    2.5268   -1.7004    0.0000 C   0  0  2  0  0  0
    3.4891   -0.5487    0.0000 O   0  0
    4.9678   -0.8053    0.0000 C   0  0
    5.4842   -2.2136    0.0000 C   0  0
    5.9296    0.3457    0.0000 O   0  0
    3.0398   -3.1099    0.0000 C   0  0
    2.0756   -4.2590    0.0000 C   0  0  2  0  0  0
    3.5211   -4.6598    0.0000 C   0  0
    2.3094   -5.7347    0.0000 C   0  0  1  0  0  0
    3.6421   -6.4230    0.0000 O   0  0
    0.9654   -6.4008    0.0000 C   0  0
   -0.0835   -5.3285    0.0000 C   0  0
    0.5984   -3.9985    0.0000 C   0  0  1  0  0  0
    0.5365   -0.0304    0.0000 C   0  0  1  0  0  0
    2.0137   -0.2909    0.0000 C   0  0
  1  2  1  0
  2  3  1  0
  4  3  1  6
  4  5  1  0
  5  6  1  0
  6  7  2  0
  6  8  1  0
  8  9  2  0
  9 10  1  0
 10 11  1  0
 11 12  1  0
 12 13  1  0
 13 14  1  0
 14 15  2  0
 15 16  1  0
 16 17  2  0
 17 18  1  0
 18 19  2  0
 19 14  1  0
 13 20  1  0
 20 21  1  0
 21 10  1  0
  8 22  1  0
 22 23  2  0
 23 24  1  0
 23 25  1  0
 25 26  2  0
 25 27  1  0
 27 28  2  0
 28 29  1  0
 29 30  1  6
 30 31  1  0
 31 32  1  0
 31 33  2  0
 29 34  1  0
 34 35  1  0
 35 36  1  1
 35 37  1  0
 37 38  1  1
 37 39  1  0
 39 40  1  0
 41 40  1  1
 41 27  1  0
 41 35  1  0
 28 42  1  0
 42 22  1  0
 42  4  1  0
 42 43  1  1
M  END
> <assay_chembl_id>
CHEMBL950966

> <assay_description>
Growth inhibition of human LNCap cells

> <document_journal>
J Med Chem

> <molecule_chembl_id>
CHEMBL271184

> <standard_value>
953

> <IC50_uM>
0.953

> <Activity>
Yes

> <Canonical_Smiles>
COC[C@H]1OC(=O)/C(=C/N2CCN(c3ccccc3)CC2)C2=C(O)C(=O)C3=C([C@H](OC(C)=O)C[C@]4(C)[C@@H](O)CC[C@@H]34)[C@]21C

$$$$

  SciTegic03142313312D

 44 49  0  0  1  0            999 V2000
    5.4201    1.7547    0.0000 C   0  0
    3.9423    2.0122    0.0000 O   0  0
    2.9793    0.8611    0.0000 C   0  0
    1.5007    1.1187    0.0000 C   0  0  1  0  0  0
    0.9877    2.5282    0.0000 O   0  0
   -0.4896    2.7887    0.0000 C   0  0
   -1.0026    4.1982    0.0000 O   0  0
   -1.4537    1.6396    0.0000 C   0  0
   -2.9312    1.9033    0.0000 C   0  0
   -3.8990    0.7562    0.0000 N   0  0
   -5.1976    1.5069    0.0000 C   0  0
   -6.4972    0.7578    0.0000 C   0  0
   -6.4981   -0.7422    0.0000 N   0  0
   -7.7983   -1.4917    0.0000 C   0  0
   -9.0982   -0.7430    0.0000 C   0  0
  -10.3965   -1.4942    0.0000 C   0  0
  -10.3951   -2.9942    0.0000 N   0  0
  -11.6934   -3.7454    0.0000 C   0  0
   -9.0954   -3.7430    0.0000 C   0  0
   -7.7970   -2.9918    0.0000 C   0  0
   -5.1996   -1.4931    0.0000 C   0  0
   -3.9001   -0.7439    0.0000 C   0  0
   -0.9407    0.2301    0.0000 C   0  0
   -1.9049   -0.9190    0.0000 C   0  0
   -3.3821   -0.6585    0.0000 O   0  0
   -1.3918   -2.3285    0.0000 C   0  0
   -2.3560   -3.4776    0.0000 O   0  0
    0.0854   -2.5890    0.0000 C   0  0
    1.0496   -1.4399    0.0000 C   0  0
    2.5268   -1.7004    0.0000 C   0  0  2  0  0  0
    3.4891   -0.5487    0.0000 O   0  0
    4.9678   -0.8053    0.0000 C   0  0
    5.4842   -2.2136    0.0000 C   0  0
    5.9296    0.3457    0.0000 O   0  0
    3.0398   -3.1099    0.0000 C   0  0
    2.0756   -4.2590    0.0000 C   0  0  2  0  0  0
    3.5211   -4.6598    0.0000 C   0  0
    2.3094   -5.7347    0.0000 C   0  0  1  0  0  0
    3.6421   -6.4230    0.0000 O   0  0
    0.9654   -6.4008    0.0000 C   0  0
   -0.0835   -5.3285    0.0000 C   0  0
    0.5984   -3.9985    0.0000 C   0  0  1  0  0  0
    0.5365   -0.0304    0.0000 C   0  0  1  0  0  0
    2.0137   -0.2909    0.0000 C   0  0
  1  2  1  0
  2  3  1  0
  4  3  1  6
  4  5  1  0
  5  6  1  0
  6  7  2  0
  6  8  1  0
  8  9  2  0
  9 10  1  0
 10 11  1  0
 11 12  1  0
 12 13  1  0
 13 14  1  0
 14 15  1  0
 15 16  1  0
 16 17  1  0
 17 18  1  0
 17 19  1  0
 19 20  1  0
 20 14  1  0
 13 21  1  0
 21 22  1  0
 22 10  1  0
  8 23  1  0
 23 24  2  0
 24 25  1  0
 24 26  1  0
 26 27  2  0
 26 28  1  0
 28 29  2  0
 29 30  1  0
 30 31  1  6
 31 32  1  0
 32 33  1  0
 32 34  2  0
 30 35  1  0
 35 36  1  0
 36 37  1  1
 36 38  1  0
 38 39  1  1
 38 40  1  0
 40 41  1  0
 42 41  1  1
 42 28  1  0
 42 36  1  0
 29 43  1  0
 43 23  1  0
 43  4  1  0
 43 44  1  1
M  END
> <assay_chembl_id>
CHEMBL950966

> <assay_description>
Growth inhibition of human LNCap cells

> <document_journal>
J Med Chem

> <molecule_chembl_id>
CHEMBL271430

> <standard_value>
782

> <IC50_uM>
0.782

> <Activity>
Yes

> <Canonical_Smiles>
COC[C@H]1OC(=O)/C(=C/N2CCN(C3CCN(C)CC3)CC2)C2=C(O)C(=O)C3=C([C@H](OC(C)=O)C[C@]4(C)[C@@H](O)CC[C@@H]34)[C@]21C

$$$$

  SciTegic03142313312D

 43 47  0  0  1  0            999 V2000
    5.1996   -1.4928    0.0000 C   0  0
    3.8990   -0.7455    0.0000 O   0  0
    2.6003   -1.4977    0.0000 C   0  0
    1.2990   -0.7500    0.0000 C   0  0  1  0  0  0
    1.2990    0.7500    0.0000 O   0  0
    0.0000    1.5000    0.0000 C   0  0
    0.0000    3.0000    0.0000 O   0  0
   -1.2990    0.7500    0.0000 C   0  0
   -2.5973    1.5031    0.0000 C   0  0
   -4.0760    1.2464    0.0000 N   0  0
   -4.5955   -0.1616    0.0000 C   0  0
   -6.0745   -0.4166    0.0000 C   0  0
   -6.5941   -1.8246    0.0000 C   0  0
   -7.1133   -3.2319    0.0000 N   0  0
   -5.0383    2.3981    0.0000 C   0  0
   -6.5170    2.1415    0.0000 C   0  0
   -7.4806    3.2911    0.0000 C   0  0
   -8.9580    3.0316    0.0000 C   0  0
   -9.4719    1.6224    0.0000 C   0  0
   -8.5085    0.4727    0.0000 C   0  0
   -7.0311    0.7322    0.0000 C   0  0
   -1.2990   -0.7500    0.0000 C   0  0
   -2.5981   -1.5000    0.0000 C   0  0
   -3.8971   -0.7500    0.0000 O   0  0
   -2.5981   -3.0000    0.0000 C   0  0
   -3.8971   -3.7500    0.0000 O   0  0
   -1.2990   -3.7500    0.0000 C   0  0
    0.0000   -3.0000    0.0000 C   0  0
    1.2991   -3.7500    0.0000 C   0  0  2  0  0  0
    2.5973   -2.9969    0.0000 O   0  0
    3.8990   -3.7438    0.0000 C   0  0
    3.9026   -5.2438    0.0000 C   0  0
    5.1965   -2.9911    0.0000 O   0  0
    1.2991   -5.2500    0.0000 C   0  0
    0.0000   -6.0000    0.0000 C   0  0  2  0  0  0
    1.2212   -6.8710    0.0000 C   0  0
   -0.2850   -7.4666    0.0000 C   0  0  1  0  0  0
    0.7319   -8.5693    0.0000 O   0  0
   -1.7758   -7.6330    0.0000 C   0  0
   -2.3947   -6.2666    0.0000 C   0  0
   -1.2990   -5.2500    0.0000 C   0  0  1  0  0  0
    0.0000   -1.5000    0.0000 C   0  0  1  0  0  0
    1.2990   -2.2500    0.0000 C   0  0
  1  2  1  0
  2  3  1  0
  4  3  1  6
  4  5  1  0
  5  6  1  0
  6  7  2  0
  6  8  1  0
  8  9  2  0
  9 10  1  0
 10 11  1  0
 11 12  1  0
 12 13  1  0
 13 14  3  0
 10 15  1  0
 15 16  1  0
 16 17  2  0
 17 18  1  0
 18 19  2  0
 19 20  1  0
 20 21  2  0
 21 16  1  0
  8 22  1  0
 22 23  2  0
 23 24  1  0
 23 25  1  0
 25 26  2  0
 25 27  1  0
 27 28  2  0
 28 29  1  0
 29 30  1  6
 30 31  1  0
 31 32  1  0
 31 33  2  0
 29 34  1  0
 34 35  1  0
 35 36  1  1
 35 37  1  0
 37 38  1  1
 37 39  1  0
 39 40  1  0
 41 40  1  1
 41 27  1  0
 41 35  1  0
 28 42  1  0
 42 22  1  0
 42  4  1  0
 42 43  1  1
M  END
> <assay_chembl_id>
CHEMBL950966

> <assay_description>
Growth inhibition of human LNCap cells

> <document_journal>
J Med Chem

> <molecule_chembl_id>
CHEMBL405157

> <standard_value>
144

> <IC50_uM>
0.144

> <Activity>
Yes

> <Canonical_Smiles>
COC[C@H]1OC(=O)/C(=C/N(CCC#N)Cc2ccccc2)C2=C(O)C(=O)C3=C([C@H](OC(C)=O)C[C@]4(C)[C@@H](O)CC[C@@H]34)[C@]21C

$$$$

  SciTegic03142313312D

 38 41  0  0  1  0            999 V2000
    5.1996   -1.4928    0.0000 C   0  0
    3.8990   -0.7455    0.0000 O   0  0
    2.6003   -1.4977    0.0000 C   0  0
    1.2990   -0.7500    0.0000 C   0  0  1  0  0  0
    1.2990    0.7500    0.0000 O   0  0
    0.0000    1.5000    0.0000 C   0  0
    0.0000    3.0000    0.0000 O   0  0
   -1.2990    0.7500    0.0000 C   0  0
   -2.5973    1.5031    0.0000 C   0  0
   -4.0760    1.2464    0.0000 N   0  0
   -4.5923   -0.1619    0.0000 C   0  0
   -5.0383    2.3981    0.0000 C   0  0
   -6.5170    2.1415    0.0000 C   0  0  3  0  0  0
   -7.0334    0.7331    0.0000 O   0  0
   -7.4794    3.2931    0.0000 C   0  0
   -8.9573    3.0366    0.0000 O   0  0
   -1.2990   -0.7500    0.0000 C   0  0
   -2.5981   -1.5000    0.0000 C   0  0
   -3.8971   -0.7500    0.0000 O   0  0
   -2.5981   -3.0000    0.0000 C   0  0
   -3.8971   -3.7500    0.0000 O   0  0
   -1.2990   -3.7500    0.0000 C   0  0
    0.0000   -3.0000    0.0000 C   0  0
    1.2991   -3.7500    0.0000 C   0  0  2  0  0  0
    2.5973   -2.9969    0.0000 O   0  0
    3.8990   -3.7438    0.0000 C   0  0
    3.9026   -5.2438    0.0000 C   0  0
    5.1965   -2.9911    0.0000 O   0  0
    1.2991   -5.2500    0.0000 C   0  0
    0.0000   -6.0000    0.0000 C   0  0  2  0  0  0
    1.2212   -6.8710    0.0000 C   0  0
   -0.2850   -7.4666    0.0000 C   0  0  1  0  0  0
    0.7319   -8.5693    0.0000 O   0  0
   -1.7758   -7.6330    0.0000 C   0  0
   -2.3947   -6.2666    0.0000 C   0  0
   -1.2990   -5.2500    0.0000 C   0  0  1  0  0  0
    0.0000   -1.5000    0.0000 C   0  0  1  0  0  0
    1.2990   -2.2500    0.0000 C   0  0
  1  2  1  0
  2  3  1  0
  4  3  1  6
  4  5  1  0
  5  6  1  0
  6  7  2  0
  6  8  1  0
  8  9  2  0
  9 10  1  0
 10 11  1  0
 10 12  1  0
 12 13  1  0
 13 14  1  4
 13 15  1  0
 15 16  1  0
  8 17  1  0
 17 18  2  0
 18 19  1  0
 18 20  1  0
 20 21  2  0
 20 22  1  0
 22 23  2  0
 23 24  1  0
 24 25  1  6
 25 26  1  0
 26 27  1  0
 26 28  2  0
 24 29  1  0
 29 30  1  0
 30 31  1  1
 30 32  1  0
 32 33  1  1
 32 34  1  0
 34 35  1  0
 36 35  1  1
 36 22  1  0
 36 30  1  0
 23 37  1  0
 37 17  1  0
 37  4  1  0
 37 38  1  1
M  END
> <assay_chembl_id>
CHEMBL950966

> <assay_description>
Growth inhibition of human LNCap cells

> <document_journal>
J Med Chem

> <molecule_chembl_id>
CHEMBL409620

> <standard_value>
168

> <IC50_uM>
0.168

> <Activity>
Yes

> <Canonical_Smiles>
COC[C@H]1OC(=O)/C(=C/N(C)CC(O)CO)C2=C(O)C(=O)C3=C([C@H](OC(C)=O)C[C@]4(C)[C@@H](O)CC[C@@H]34)[C@]21C

$$$$

  SciTegic03142313312D

 38 41  0  0  1  0            999 V2000
    5.1996   -1.4928    0.0000 C   0  0
    3.8990   -0.7455    0.0000 O   0  0
    2.6003   -1.4977    0.0000 C   0  0
    1.2990   -0.7500    0.0000 C   0  0  1  0  0  0
    1.2990    0.7500    0.0000 O   0  0
    0.0000    1.5000    0.0000 C   0  0
    0.0000    3.0000    0.0000 O   0  0
   -1.2990    0.7500    0.0000 C   0  0
   -2.5973    1.5031    0.0000 C   0  0
   -4.0760    1.2464    0.0000 N   0  0
   -5.0383    2.3981    0.0000 C   0  0
   -6.5170    2.1415    0.0000 C   0  0
   -7.4789    3.2925    0.0000 O   0  0
   -4.5955   -0.1616    0.0000 C   0  0
   -6.0745   -0.4166    0.0000 C   0  0
   -6.5938   -1.8239    0.0000 O   0  0
   -1.2990   -0.7500    0.0000 C   0  0
   -2.5981   -1.5000    0.0000 C   0  0
   -3.8971   -0.7500    0.0000 O   0  0
   -2.5981   -3.0000    0.0000 C   0  0
   -3.8971   -3.7500    0.0000 O   0  0
   -1.2990   -3.7500    0.0000 C   0  0
    0.0000   -3.0000    0.0000 C   0  0
    1.2991   -3.7500    0.0000 C   0  0  2  0  0  0
    2.5973   -2.9969    0.0000 O   0  0
    3.8990   -3.7438    0.0000 C   0  0
    3.9026   -5.2438    0.0000 C   0  0
    5.1965   -2.9911    0.0000 O   0  0
    1.2991   -5.2500    0.0000 C   0  0
    0.0000   -6.0000    0.0000 C   0  0  2  0  0  0
    1.2212   -6.8710    0.0000 C   0  0
   -0.2850   -7.4666    0.0000 C   0  0  1  0  0  0
    0.7319   -8.5693    0.0000 O   0  0
   -1.7758   -7.6330    0.0000 C   0  0
   -2.3947   -6.2666    0.0000 C   0  0
   -1.2990   -5.2500    0.0000 C   0  0  1  0  0  0
    0.0000   -1.5000    0.0000 C   0  0  1  0  0  0
    1.2990   -2.2500    0.0000 C   0  0
  1  2  1  0
  2  3  1  0
  4  3  1  6
  4  5  1  0
  5  6  1  0
  6  7  2  0
  6  8  1  0
  8  9  2  0
  9 10  1  0
 10 11  1  0
 11 12  1  0
 12 13  1  0
 10 14  1  0
 14 15  1  0
 15 16  1  0
  8 17  1  0
 17 18  2  0
 18 19  1  0
 18 20  1  0
 20 21  2  0
 20 22  1  0
 22 23  2  0
 23 24  1  0
 24 25  1  6
 25 26  1  0
 26 27  1  0
 26 28  2  0
 24 29  1  0
 29 30  1  0
 30 31  1  1
 30 32  1  0
 32 33  1  1
 32 34  1  0
 34 35  1  0
 36 35  1  1
 36 22  1  0
 36 30  1  0
 23 37  1  0
 37 17  1  0
 37  4  1  0
 37 38  1  1
M  END
> <assay_chembl_id>
CHEMBL950966

> <assay_description>
Growth inhibition of human LNCap cells

> <document_journal>
J Med Chem

> <molecule_chembl_id>
CHEMBL412076

> <standard_value>
131

> <IC50_uM>
0.131

> <Activity>
Yes

> <Canonical_Smiles>
COC[C@H]1OC(=O)/C(=C/N(CCO)CCO)C2=C(O)C(=O)C3=C([C@H](OC(C)=O)C[C@]4(C)[C@@H](O)CC[C@@H]34)[C@]21C

$$$$

  SciTegic03142313312D

 39 42  0  0  1  0            999 V2000
    5.1996   -1.4928    0.0000 C   0  0
    3.8990   -0.7455    0.0000 O   0  0
    2.6003   -1.4977    0.0000 C   0  0
    1.2990   -0.7500    0.0000 C   0  0  1  0  0  0
    1.2990    0.7500    0.0000 O   0  0
    0.0000    1.5000    0.0000 C   0  0
    0.0000    3.0000    0.0000 O   0  0
   -1.2990    0.7500    0.0000 C   0  0
   -2.5973    1.5031    0.0000 C   0  0
   -4.0760    1.2464    0.0000 N   0  0
   -4.5923   -0.1619    0.0000 C   0  0
   -5.0383    2.3981    0.0000 C   0  0
   -6.5170    2.1415    0.0000 C   0  0
   -7.4794    3.2931    0.0000 C   0  0
   -8.9581    3.0365    0.0000 C   0  0
   -9.9199    4.1875    0.0000 O   0  0
   -9.4745    1.6282    0.0000 O   0  0
   -1.2990   -0.7500    0.0000 C   0  0
   -2.5981   -1.5000    0.0000 C   0  0
   -3.8971   -0.7500    0.0000 O   0  0
   -2.5981   -3.0000    0.0000 C   0  0
   -3.8971   -3.7500    0.0000 O   0  0
   -1.2990   -3.7500    0.0000 C   0  0
    0.0000   -3.0000    0.0000 C   0  0
    1.2991   -3.7500    0.0000 C   0  0  2  0  0  0
    2.5973   -2.9969    0.0000 O   0  0
    3.8990   -3.7438    0.0000 C   0  0
    3.9026   -5.2438    0.0000 C   0  0
    5.1965   -2.9911    0.0000 O   0  0
    1.2991   -5.2500    0.0000 C   0  0
    0.0000   -6.0000    0.0000 C   0  0  2  0  0  0
    1.2212   -6.8710    0.0000 C   0  0
   -0.2850   -7.4666    0.0000 C   0  0  1  0  0  0
    0.7319   -8.5693    0.0000 O   0  0
   -1.7758   -7.6330    0.0000 C   0  0
   -2.3947   -6.2666    0.0000 C   0  0
   -1.2990   -5.2500    0.0000 C   0  0  1  0  0  0
    0.0000   -1.5000    0.0000 C   0  0  1  0  0  0
    1.2990   -2.2500    0.0000 C   0  0
  1  2  1  0
  2  3  1  0
  4  3  1  6
  4  5  1  0
  5  6  1  0
  6  7  2  0
  6  8  1  0
  8  9  2  0
  9 10  1  0
 10 11  1  0
 10 12  1  0
 12 13  1  0
 13 14  1  0
 14 15  1  0
 15 16  2  0
 15 17  1  0
  8 18  1  0
 18 19  2  0
 19 20  1  0
 19 21  1  0
 21 22  2  0
 21 23  1  0
 23 24  2  0
 24 25  1  0
 25 26  1  6
 26 27  1  0
 27 28  1  0
 27 29  2  0
 25 30  1  0
 30 31  1  0
 31 32  1  1
 31 33  1  0
 33 34  1  1
 33 35  1  0
 35 36  1  0
 37 36  1  1
 37 23  1  0
 37 31  1  0
 24 38  1  0
 38 18  1  0
 38  4  1  0
 38 39  1  1
M  END
> <assay_chembl_id>
CHEMBL950966

> <assay_description>
Growth inhibition of human LNCap cells

> <document_journal>
J Med Chem

> <molecule_chembl_id>
CHEMBL272593

> <standard_value>
365

> <IC50_uM>
0.365

> <Activity>
Yes

> <Canonical_Smiles>
COC[C@H]1OC(=O)/C(=C/N(C)CCCC(=O)O)C2=C(O)C(=O)C3=C([C@H](OC(C)=O)C[C@]4(C)[C@@H](O)CC[C@@H]34)[C@]21C

$$$$

  SciTegic03142313312D

 41 44  0  0  1  0            999 V2000
    5.1996   -1.4928    0.0000 C   0  0
    3.8990   -0.7455    0.0000 O   0  0
    2.6003   -1.4977    0.0000 C   0  0
    1.2990   -0.7500    0.0000 C   0  0  1  0  0  0
    1.2990    0.7500    0.0000 O   0  0
    0.0000    1.5000    0.0000 C   0  0
    0.0000    3.0000    0.0000 O   0  0
   -1.2990    0.7500    0.0000 C   0  0
   -2.5973    1.5031    0.0000 C   0  0
   -4.0760    1.2464    0.0000 N   0  0
   -4.5923   -0.1619    0.0000 C   0  0
   -5.0383    2.3981    0.0000 C   0  0
   -6.5170    2.1415    0.0000 C   0  0
   -7.0334    0.7331    0.0000 O   0  0
   -7.4794    3.2931    0.0000 O   0  0
   -8.9581    3.0365    0.0000 C   0  0
   -9.9199    4.1875    0.0000 C   0  0
   -9.4745    1.6282    0.0000 C   0  0
  -10.4359    2.7793    0.0000 C   0  0
   -1.2990   -0.7500    0.0000 C   0  0
   -2.5981   -1.5000    0.0000 C   0  0
   -3.8971   -0.7500    0.0000 O   0  0
   -2.5981   -3.0000    0.0000 C   0  0
   -3.8971   -3.7500    0.0000 O   0  0
   -1.2990   -3.7500    0.0000 C   0  0
    0.0000   -3.0000    0.0000 C   0  0
    1.2991   -3.7500    0.0000 C   0  0  2  0  0  0
    2.5973   -2.9969    0.0000 O   0  0
    3.8990   -3.7438    0.0000 C   0  0
    3.9026   -5.2438    0.0000 C   0  0
    5.1965   -2.9911    0.0000 O   0  0
    1.2991   -5.2500    0.0000 C   0  0
    0.0000   -6.0000    0.0000 C   0  0  2  0  0  0
    1.2212   -6.8710    0.0000 C   0  0
   -0.2850   -7.4666    0.0000 C   0  0  1  0  0  0
    0.7319   -8.5693    0.0000 O   0  0
   -1.7758   -7.6330    0.0000 C   0  0
   -2.3947   -6.2666    0.0000 C   0  0
   -1.2990   -5.2500    0.0000 C   0  0  1  0  0  0
    0.0000   -1.5000    0.0000 C   0  0  1  0  0  0
    1.2990   -2.2500    0.0000 C   0  0
  1  2  1  0
  2  3  1  0
  4  3  1  6
  4  5  1  0
  5  6  1  0
  6  7  2  0
  6  8  1  0
  8  9  2  0
  9 10  1  0
 10 11  1  0
 10 12  1  0
 12 13  1  0
 13 14  2  0
 13 15  1  0
 15 16  1  0
 16 17  1  0
 16 18  1  0
 16 19  1  0
  8 20  1  0
 20 21  2  0
 21 22  1  0
 21 23  1  0
 23 24  2  0
 23 25  1  0
 25 26  2  0
 26 27  1  0
 27 28  1  6
 28 29  1  0
 29 30  1  0
 29 31  2  0
 27 32  1  0
 32 33  1  0
 33 34  1  1
 33 35  1  0
 35 36  1  1
 35 37  1  0
 37 38  1  0
 39 38  1  1
 39 25  1  0
 39 33  1  0
 26 40  1  0
 40 20  1  0
 40  4  1  0
 40 41  1  1
M  END
> <assay_chembl_id>
CHEMBL950966

> <assay_description>
Growth inhibition of human LNCap cells

> <document_journal>
J Med Chem

> <molecule_chembl_id>
CHEMBL272281

> <standard_value>
174

> <IC50_uM>
0.174

> <Activity>
Yes

> <Canonical_Smiles>
COC[C@H]1OC(=O)/C(=C/N(C)CC(=O)OC(C)(C)C)C2=C(O)C(=O)C3=C([C@H](OC(C)=O)C[C@]4(C)[C@@H](O)CC[C@@H]34)[C@]21C

$$$$

  SciTegic03142313312D

 50 55  0  0  1  0            999 V2000
    5.1996   -1.4928    0.0000 C   0  0
    3.8990   -0.7455    0.0000 O   0  0
    2.6003   -1.4977    0.0000 C   0  0
    1.2990   -0.7500    0.0000 C   0  0  1  0  0  0
    1.2990    0.7500    0.0000 O   0  0
    0.0000    1.5000    0.0000 C   0  0
    0.0000    3.0000    0.0000 O   0  0
   -1.2990    0.7500    0.0000 C   0  0
   -2.5973    1.5031    0.0000 C   0  0
   -4.0760    1.2464    0.0000 N   0  0
   -4.5923   -0.1619    0.0000 C   0  0
   -5.0383    2.3981    0.0000 C   0  0
   -6.5170    2.1415    0.0000 C   0  0
   -7.4794    3.2931    0.0000 C   0  0
   -8.9581    3.0365    0.0000 N   0  0
   -9.9216    4.1861    0.0000 C   0  0
  -11.3990    3.9266    0.0000 C   0  0
  -11.9130    2.5174    0.0000 N   0  0
  -13.3911    2.2578    0.0000 C   0  0
  -14.3565    3.4059    0.0000 C   0  0
  -15.8334    3.1441    0.0000 C   0  0
  -16.3451    1.7341    0.0000 C   0  0
  -17.8224    1.4690    0.0000 O   0  0
  -18.3321    0.0583    0.0000 C   0  0
  -15.3799    0.5859    0.0000 C   0  0
  -13.9029    0.8477    0.0000 C   0  0
  -10.9495    1.3677    0.0000 C   0  0
   -9.4722    1.6272    0.0000 C   0  0
   -1.2990   -0.7500    0.0000 C   0  0
   -2.5981   -1.5000    0.0000 C   0  0
   -3.8971   -0.7500    0.0000 O   0  0
   -2.5981   -3.0000    0.0000 C   0  0
   -3.8971   -3.7500    0.0000 O   0  0
   -1.2990   -3.7500    0.0000 C   0  0
    0.0000   -3.0000    0.0000 C   0  0
    1.2991   -3.7500    0.0000 C   0  0  2  0  0  0
    2.5973   -2.9969    0.0000 O   0  0
    3.8990   -3.7438    0.0000 C   0  0
    3.9026   -5.2438    0.0000 C   0  0
    5.1965   -2.9911    0.0000 O   0  0
    1.2991   -5.2500    0.0000 C   0  0
    0.0000   -6.0000    0.0000 C   0  0  2  0  0  0
    1.2212   -6.8710    0.0000 C   0  0
   -0.2850   -7.4666    0.0000 C   0  0  1  0  0  0
    0.7319   -8.5693    0.0000 O   0  0
   -1.7758   -7.6330    0.0000 C   0  0
   -2.3947   -6.2666    0.0000 C   0  0
   -1.2990   -5.2500    0.0000 C   0  0  1  0  0  0
    0.0000   -1.5000    0.0000 C   0  0  1  0  0  0
    1.2990   -2.2500    0.0000 C   0  0
  1  2  1  0
  2  3  1  0
  4  3  1  6
  4  5  1  0
  5  6  1  0
  6  7  2  0
  6  8  1  0
  8  9  2  0
  9 10  1  0
 10 11  1  0
 10 12  1  0
 12 13  1  0
 13 14  1  0
 14 15  1  0
 15 16  1  0
 16 17  1  0
 17 18  1  0
 18 19  1  0
 19 20  2  0
 20 21  1  0
 21 22  2  0
 22 23  1  0
 23 24  1  0
 22 25  1  0
 25 26  2  0
 26 19  1  0
 18 27  1  0
 27 28  1  0
 28 15  1  0
  8 29  1  0
 29 30  2  0
 30 31  1  0
 30 32  1  0
 32 33  2  0
 32 34  1  0
 34 35  2  0
 35 36  1  0
 36 37  1  6
 37 38  1  0
 38 39  1  0
 38 40  2  0
 36 41  1  0
 41 42  1  0
 42 43  1  1
 42 44  1  0
 44 45  1  1
 44 46  1  0
 46 47  1  0
 48 47  1  1
 48 34  1  0
 48 42  1  0
 35 49  1  0
 49 29  1  0
 49  4  1  0
 49 50  1  1
M  END
> <assay_chembl_id>
CHEMBL950966

> <assay_description>
Growth inhibition of human LNCap cells

> <document_journal>
J Med Chem

> <molecule_chembl_id>
CHEMBL405258

> <standard_value>
620

> <IC50_uM>
0.62

> <Activity>
Yes

> <Canonical_Smiles>
COC[C@H]1OC(=O)/C(=C/N(C)CCCN2CCN(c3ccc(OC)cc3)CC2)C2=C(O)C(=O)C3=C([C@H](OC(C)=O)C[C@]4(C)[C@@H](O)CC[C@@H]34)[C@]21C

$$$$

  SciTegic03142313312D

 42 46  0  0  1  0            999 V2000
    5.1996   -1.4928    0.0000 C   0  0
    3.8990   -0.7455    0.0000 O   0  0
    2.6003   -1.4977    0.0000 C   0  0
    1.2990   -0.7500    0.0000 C   0  0  1  0  0  0
    1.2990    0.7500    0.0000 O   0  0
    0.0000    1.5000    0.0000 C   0  0
    0.0000    3.0000    0.0000 O   0  0
   -1.2990    0.7500    0.0000 C   0  0
   -2.5973    1.5031    0.0000 C   0  0
   -4.0760    1.2464    0.0000 N   0  0
   -4.5923   -0.1619    0.0000 C   0  0
   -5.0383    2.3981    0.0000 C   0  0
   -6.5170    2.1415    0.0000 C   0  0
   -7.4794    3.2931    0.0000 C   0  0
   -8.9581    3.0365    0.0000 N   0  0
   -9.9216    4.1861    0.0000 C   0  0
  -11.3990    3.9266    0.0000 C   0  0
  -11.9130    2.5174    0.0000 O   0  0
  -10.9495    1.3677    0.0000 C   0  0
   -9.4722    1.6272    0.0000 C   0  0
   -1.2990   -0.7500    0.0000 C   0  0
   -2.5981   -1.5000    0.0000 C   0  0
   -3.8971   -0.7500    0.0000 O   0  0
   -2.5981   -3.0000    0.0000 C   0  0
   -3.8971   -3.7500    0.0000 O   0  0
   -1.2990   -3.7500    0.0000 C   0  0
    0.0000   -3.0000    0.0000 C   0  0
    1.2991   -3.7500    0.0000 C   0  0  2  0  0  0
    2.5973   -2.9969    0.0000 O   0  0
    3.8990   -3.7438    0.0000 C   0  0
    3.9026   -5.2438    0.0000 C   0  0
    5.1965   -2.9911    0.0000 O   0  0
    1.2991   -5.2500    0.0000 C   0  0
    0.0000   -6.0000    0.0000 C   0  0  2  0  0  0
    1.2212   -6.8710    0.0000 C   0  0
   -0.2850   -7.4666    0.0000 C   0  0  1  0  0  0
    0.7319   -8.5693    0.0000 O   0  0
   -1.7758   -7.6330    0.0000 C   0  0
   -2.3947   -6.2666    0.0000 C   0  0
   -1.2990   -5.2500    0.0000 C   0  0  1  0  0  0
    0.0000   -1.5000    0.0000 C   0  0  1  0  0  0
    1.2990   -2.2500    0.0000 C   0  0
  1  2  1  0
  2  3  1  0
  4  3  1  6
  4  5  1  0
  5  6  1  0
  6  7  2  0
  6  8  1  0
  8  9  2  0
  9 10  1  0
 10 11  1  0
 10 12  1  0
 12 13  1  0
 13 14  1  0
 14 15  1  0
 15 16  1  0
 16 17  1  0
 17 18  1  0
 18 19  1  0
 19 20  1  0
 20 15  1  0
  8 21  1  0
 21 22  2  0
 22 23  1  0
 22 24  1  0
 24 25  2  0
 24 26  1  0
 26 27  2  0
 27 28  1  0
 28 29  1  6
 29 30  1  0
 30 31  1  0
 30 32  2  0
 28 33  1  0
 33 34  1  0
 34 35  1  1
 34 36  1  0
 36 37  1  1
 36 38  1  0
 38 39  1  0
 40 39  1  1
 40 26  1  0
 40 34  1  0
 27 41  1  0
 41 21  1  0
 41  4  1  0
 41 42  1  1
M  END
> <assay_chembl_id>
CHEMBL950966

> <assay_description>
Growth inhibition of human LNCap cells

> <document_journal>
J Med Chem

> <molecule_chembl_id>
CHEMBL407215

> <standard_value>
595

> <IC50_uM>
0.595

> <Activity>
Yes

> <Canonical_Smiles>
COC[C@H]1OC(=O)/C(=C/N(C)CCCN2CCOCC2)C2=C(O)C(=O)C3=C([C@H](OC(C)=O)C[C@]4(C)[C@@H](O)CC[C@@H]34)[C@]21C

$$$$

  SciTegic03142313312D

 43 47  0  0  1  0            999 V2000
    5.1996   -1.4928    0.0000 C   0  0
    3.8990   -0.7455    0.0000 O   0  0
    2.6003   -1.4977    0.0000 C   0  0
    1.2990   -0.7500    0.0000 C   0  0  1  0  0  0
    1.2990    0.7500    0.0000 O   0  0
    0.0000    1.5000    0.0000 C   0  0
    0.0000    3.0000    0.0000 O   0  0
   -1.2990    0.7500    0.0000 C   0  0
   -2.5973    1.5031    0.0000 C   0  0
   -4.0760    1.2464    0.0000 N   0  0
   -4.5923   -0.1619    0.0000 C   0  0
   -5.0383    2.3981    0.0000 C   0  0
   -6.5170    2.1415    0.0000 C   0  0
   -7.4794    3.2931    0.0000 C   0  0
   -8.9581    3.0365    0.0000 N   0  0
   -9.9216    4.1861    0.0000 C   0  0
  -11.3990    3.9266    0.0000 C   0  0
  -11.9130    2.5174    0.0000 N   0  0
  -13.3903    2.2579    0.0000 C   0  0
  -10.9495    1.3677    0.0000 C   0  0
   -9.4722    1.6272    0.0000 C   0  0
   -1.2990   -0.7500    0.0000 C   0  0
   -2.5981   -1.5000    0.0000 C   0  0
   -3.8971   -0.7500    0.0000 O   0  0
   -2.5981   -3.0000    0.0000 C   0  0
   -3.8971   -3.7500    0.0000 O   0  0
   -1.2990   -3.7500    0.0000 C   0  0
    0.0000   -3.0000    0.0000 C   0  0
    1.2991   -3.7500    0.0000 C   0  0  2  0  0  0
    2.5973   -2.9969    0.0000 O   0  0
    3.8990   -3.7438    0.0000 C   0  0
    3.9026   -5.2438    0.0000 C   0  0
    5.1965   -2.9911    0.0000 O   0  0
    1.2991   -5.2500    0.0000 C   0  0
    0.0000   -6.0000    0.0000 C   0  0  2  0  0  0
    1.2212   -6.8710    0.0000 C   0  0
   -0.2850   -7.4666    0.0000 C   0  0  1  0  0  0
    0.7319   -8.5693    0.0000 O   0  0
   -1.7758   -7.6330    0.0000 C   0  0
   -2.3947   -6.2666    0.0000 C   0  0
   -1.2990   -5.2500    0.0000 C   0  0  1  0  0  0
    0.0000   -1.5000    0.0000 C   0  0  1  0  0  0
    1.2990   -2.2500    0.0000 C   0  0
  1  2  1  0
  2  3  1  0
  4  3  1  6
  4  5  1  0
  5  6  1  0
  6  7  2  0
  6  8  1  0
  8  9  2  0
  9 10  1  0
 10 11  1  0
 10 12  1  0
 12 13  1  0
 13 14  1  0
 14 15  1  0
 15 16  1  0
 16 17  1  0
 17 18  1  0
 18 19  1  0
 18 20  1  0
 20 21  1  0
 21 15  1  0
  8 22  1  0
 22 23  2  0
 23 24  1  0
 23 25  1  0
 25 26  2  0
 25 27  1  0
 27 28  2  0
 28 29  1  0
 29 30  1  6
 30 31  1  0
 31 32  1  0
 31 33  2  0
 29 34  1  0
 34 35  1  0
 35 36  1  1
 35 37  1  0
 37 38  1  1
 37 39  1  0
 39 40  1  0
 41 40  1  1
 41 27  1  0
 41 35  1  0
 28 42  1  0
 42 22  1  0
 42  4  1  0
 42 43  1  1
M  END
> <assay_chembl_id>
CHEMBL950966

> <assay_description>
Growth inhibition of human LNCap cells

> <document_journal>
J Med Chem

> <molecule_chembl_id>
CHEMBL407214

> <standard_value>
465

> <IC50_uM>
0.465

> <Activity>
Yes

> <Canonical_Smiles>
COC[C@H]1OC(=O)/C(=C/N(C)CCCN2CCN(C)CC2)C2=C(O)C(=O)C3=C([C@H](OC(C)=O)C[C@]4(C)[C@@H](O)CC[C@@H]34)[C@]21C

$$$$

  SciTegic03142313312D

 44 47  0  0  1  0            999 V2000
    5.1996   -1.4928    0.0000 C   0  0
    3.8990   -0.7455    0.0000 O   0  0
    2.6003   -1.4977    0.0000 C   0  0
    1.2990   -0.7500    0.0000 C   0  0  1  0  0  0
    1.2990    0.7500    0.0000 O   0  0
    0.0000    1.5000    0.0000 C   0  0
    0.0000    3.0000    0.0000 O   0  0
   -1.2990    0.7500    0.0000 C   0  0
   -2.5973    1.5031    0.0000 C   0  0
   -4.0760    1.2464    0.0000 N   0  0
   -5.0383    2.3981    0.0000 C   0  0
   -6.5170    2.1415    0.0000 C   0  0
   -7.4794    3.2931    0.0000 C   0  0
   -8.9581    3.0365    0.0000 N   0  0
   -9.9199    4.1875    0.0000 C   0  0
   -9.4745    1.6282    0.0000 C   0  0
   -4.5955   -0.1616    0.0000 C   0  0
   -6.0745   -0.4166    0.0000 C   0  0
   -6.5941   -1.8246    0.0000 C   0  0
   -8.0731   -2.0797    0.0000 N   0  0
   -8.5923   -3.4869    0.0000 C   0  0
   -9.0325   -0.9266    0.0000 C   0  0
   -1.2990   -0.7500    0.0000 C   0  0
   -2.5981   -1.5000    0.0000 C   0  0
   -3.8971   -0.7500    0.0000 O   0  0
   -2.5981   -3.0000    0.0000 C   0  0
   -3.8971   -3.7500    0.0000 O   0  0
   -1.2990   -3.7500    0.0000 C   0  0
    0.0000   -3.0000    0.0000 C   0  0
    1.2991   -3.7500    0.0000 C   0  0  2  0  0  0
    2.5973   -2.9969    0.0000 O   0  0
    3.8990   -3.7438    0.0000 C   0  0
    3.9026   -5.2438    0.0000 C   0  0
    5.1965   -2.9911    0.0000 O   0  0
    1.2991   -5.2500    0.0000 C   0  0
    0.0000   -6.0000    0.0000 C   0  0  2  0  0  0
    1.2212   -6.8710    0.0000 C   0  0
   -0.2850   -7.4666    0.0000 C   0  0  1  0  0  0
    0.7319   -8.5693    0.0000 O   0  0
   -1.7758   -7.6330    0.0000 C   0  0
   -2.3947   -6.2666    0.0000 C   0  0
   -1.2990   -5.2500    0.0000 C   0  0  1  0  0  0
    0.0000   -1.5000    0.0000 C   0  0  1  0  0  0
    1.2990   -2.2500    0.0000 C   0  0
  1  2  1  0
  2  3  1  0
  4  3  1  6
  4  5  1  0
  5  6  1  0
  6  7  2  0
  6  8  1  0
  8  9  2  0
  9 10  1  0
 10 11  1  0
 11 12  1  0
 12 13  1  0
 13 14  1  0
 14 15  1  0
 14 16  1  0
 10 17  1  0
 17 18  1  0
 18 19  1  0
 19 20  1  0
 20 21  1  0
 20 22  1  0
  8 23  1  0
 23 24  2  0
 24 25  1  0
 24 26  1  0
 26 27  2  0
 26 28  1  0
 28 29  2  0
 29 30  1  0
 30 31  1  6
 31 32  1  0
 32 33  1  0
 32 34  2  0
 30 35  1  0
 35 36  1  0
 36 37  1  1
 36 38  1  0
 38 39  1  1
 38 40  1  0
 40 41  1  0
 42 41  1  1
 42 28  1  0
 42 36  1  0
 29 43  1  0
 43 23  1  0
 43  4  1  0
 43 44  1  1
M  END
> <assay_chembl_id>
CHEMBL950966

> <assay_description>
Growth inhibition of human LNCap cells

> <document_journal>
J Med Chem

> <molecule_chembl_id>
CHEMBL272595

> <standard_value>
259

> <IC50_uM>
0.259

> <Activity>
Yes

> <Canonical_Smiles>
COC[C@H]1OC(=O)/C(=C/N(CCCN(C)C)CCCN(C)C)C2=C(O)C(=O)C3=C([C@H](OC(C)=O)C[C@]4(C)[C@@H](O)CC[C@@H]34)[C@]21C

$$$$

  SciTegic03142313312D

 40 43  0  0  1  0            999 V2000
    5.8899    0.9256    0.0000 C   0  0
    4.4128    0.6647    0.0000 C   0  0
    3.8990   -0.7455    0.0000 N   0  0
    2.6003   -1.4977    0.0000 C   0  0
    1.2990   -0.7500    0.0000 C   0  0
    0.0031   -1.5053    0.0000 C   0  0
    0.0093   -3.0053    0.0000 O   0  0
   -1.2990   -0.7607    0.0000 O   0  0
   -1.3052    0.7393    0.0000 C   0  0  2  0  0  0
   -2.6096    1.4817    0.0000 C   0  0
   -3.9051    0.7241    0.0000 O   0  0
   -5.2088    1.4661    0.0000 C   0  0
   -0.0092    1.4946    0.0000 C   0  0  1  0  0  0
   -1.3114    2.2393    0.0000 C   0  0
    1.2929    0.7500    0.0000 C   0  0
    2.5888    1.5053    0.0000 C   0  0
    3.8909    0.7607    0.0000 O   0  0
    2.5826    3.0053    0.0000 C   0  0
    3.8786    3.7607    0.0000 O   0  0
    1.2805    3.7500    0.0000 C   0  0
   -0.0154    2.9946    0.0000 C   0  0
   -1.3175    3.7393    0.0000 C   0  0  2  0  0  0
   -2.6126    2.9809    0.0000 O   0  0
   -3.9175    3.7224    0.0000 C   0  0
   -3.9272    5.2224    0.0000 C   0  0
   -5.2119    2.9644    0.0000 O   0  0
   -1.3237    5.2393    0.0000 C   0  0
   -0.0278    5.9946    0.0000 C   0  0  2  0  0  0
   -1.2525    6.8606    0.0000 C   0  0
    0.2513    7.4624    0.0000 C   0  0  1  0  0  0
   -0.7702    8.5609    0.0000 O   0  0
    1.7413    7.6348    0.0000 C   0  0
    2.3658    6.2710    0.0000 C   0  0
    1.2744    5.2500    0.0000 C   0  0  1  0  0  0
    5.2003   -1.4932    0.0000 C   0  0
    6.4990   -0.7409    0.0000 C   0  0
    7.8003   -1.4887    0.0000 C   0  0
    9.0990   -0.7364    0.0000 N   0  0
   10.3996   -1.4837    0.0000 C   0  0
    9.0964    0.7636    0.0000 C   0  0
  1  2  1  0
  2  3  1  0
  3  4  1  0
  4  5  2  0
  5  6  1  0
  6  7  2  0
  6  8  1  0
  8  9  1  0
  9 10  1  6
 10 11  1  0
 11 12  1  0
  9 13  1  0
 13 14  1  1
 13 15  1  0
 15  5  1  0
 15 16  2  0
 16 17  1  0
 16 18  1  0
 18 19  2  0
 18 20  1  0
 20 21  2  0
 21 13  1  0
 21 22  1  0
 22 23  1  6
 23 24  1  0
 24 25  1  0
 24 26  2  0
 22 27  1  0
 27 28  1  0
 28 29  1  1
 28 30  1  0
 30 31  1  1
 30 32  1  0
 32 33  1  0
 34 33  1  1
 34 20  1  0
 34 28  1  0
  3 35  1  0
 35 36  1  0
 36 37  1  0
 37 38  1  0
 38 39  1  0
 38 40  1  0
M  END
> <assay_chembl_id>
CHEMBL950966

> <assay_description>
Growth inhibition of human LNCap cells

> <document_journal>
J Med Chem

> <molecule_chembl_id>
CHEMBL272897

> <standard_value>
535

> <IC50_uM>
0.535

> <Activity>
Yes

> <Canonical_Smiles>
CCN(/C=C1/C(=O)O[C@H](COC)[C@@]2(C)C1=C(O)C(=O)C1=C2[C@H](OC(C)=O)C[C@]2(C)[C@@H](O)CC[C@@H]12)CCCN(C)C

$$$$

  SciTegic03142313312D

 38 41  0  0  1  0            999 V2000
    5.1996   -1.4928    0.0000 C   0  0
    3.8990   -0.7455    0.0000 O   0  0
    2.6003   -1.4977    0.0000 C   0  0
    1.2990   -0.7500    0.0000 C   0  0  1  0  0  0
    1.2990    0.7500    0.0000 O   0  0
    0.0000    1.5000    0.0000 C   0  0
    0.0000    3.0000    0.0000 O   0  0
   -1.2990    0.7500    0.0000 C   0  0
   -2.5973    1.5031    0.0000 C   0  0
   -4.0760    1.2464    0.0000 N   0  0
   -4.5923   -0.1619    0.0000 C   0  0
   -5.0383    2.3981    0.0000 C   0  0
   -6.5170    2.1415    0.0000 C   0  0
   -7.4794    3.2931    0.0000 N   0  0
   -8.9573    3.0366    0.0000 C   0  0
   -6.9630    4.7015    0.0000 C   0  0
   -1.2990   -0.7500    0.0000 C   0  0
   -2.5981   -1.5000    0.0000 C   0  0
   -3.8971   -0.7500    0.0000 O   0  0
   -2.5981   -3.0000    0.0000 C   0  0
   -3.8971   -3.7500    0.0000 O   0  0
   -1.2990   -3.7500    0.0000 C   0  0
    0.0000   -3.0000    0.0000 C   0  0
    1.2991   -3.7500    0.0000 C   0  0  2  0  0  0
    2.5973   -2.9969    0.0000 O   0  0
    3.8990   -3.7438    0.0000 C   0  0
    3.9026   -5.2438    0.0000 C   0  0
    5.1965   -2.9911    0.0000 O   0  0
    1.2991   -5.2500    0.0000 C   0  0
    0.0000   -6.0000    0.0000 C   0  0  2  0  0  0
    1.2212   -6.8710    0.0000 C   0  0
   -0.2850   -7.4666    0.0000 C   0  0  1  0  0  0
    0.7319   -8.5693    0.0000 O   0  0
   -1.7758   -7.6330    0.0000 C   0  0
   -2.3947   -6.2666    0.0000 C   0  0
   -1.2990   -5.2500    0.0000 C   0  0  1  0  0  0
    0.0000   -1.5000    0.0000 C   0  0  1  0  0  0
    1.2990   -2.2500    0.0000 C   0  0
  1  2  1  0
  2  3  1  0
  4  3  1  6
  4  5  1  0
  5  6  1  0
  6  7  2  0
  6  8  1  0
  8  9  2  0
  9 10  1  0
 10 11  1  0
 10 12  1  0
 12 13  1  0
 13 14  1  0
 14 15  1  0
 14 16  1  0
  8 17  1  0
 17 18  2  0
 18 19  1  0
 18 20  1  0
 20 21  2  0
 20 22  1  0
 22 23  2  0
 23 24  1  0
 24 25  1  6
 25 26  1  0
 26 27  1  0
 26 28  2  0
 24 29  1  0
 29 30  1  0
 30 31  1  1
 30 32  1  0
 32 33  1  1
 32 34  1  0
 34 35  1  0
 36 35  1  1
 36 22  1  0
 36 30  1  0
 23 37  1  0
 37 17  1  0
 37  4  1  0
 37 38  1  1
M  END
> <assay_chembl_id>
CHEMBL950966

> <assay_description>
Growth inhibition of human LNCap cells

> <document_journal>
J Med Chem

> <molecule_chembl_id>
CHEMBL409427

> <standard_value>
751

> <IC50_uM>
0.751

> <Activity>
Yes

> <Canonical_Smiles>
COC[C@H]1OC(=O)/C(=C/N(C)CCN(C)C)C2=C(O)C(=O)C3=C([C@H](OC(C)=O)C[C@]4(C)[C@@H](O)CC[C@@H]34)[C@]21C

$$$$

  SciTegic03142313312D

 42 45  0  0  1  0            999 V2000
    5.1996   -1.4928    0.0000 C   0  0
    3.8990   -0.7455    0.0000 O   0  0
    2.6003   -1.4977    0.0000 C   0  0
    1.2990   -0.7500    0.0000 C   0  0  1  0  0  0
    1.2990    0.7500    0.0000 O   0  0
    0.0000    1.5000    0.0000 C   0  0
    0.0000    3.0000    0.0000 O   0  0
   -1.2990    0.7500    0.0000 C   0  0
   -2.5973    1.5031    0.0000 C   0  0
   -4.0760    1.2464    0.0000 N   0  0
   -4.5940   -0.1622    0.0000 C   0  0
   -6.0727   -0.4188    0.0000 C   0  0
   -6.5907   -1.8274    0.0000 C   0  0
   -8.0694   -2.0841    0.0000 N   0  0
   -8.5871   -3.4919    0.0000 C   0  0
   -9.0301   -0.9321    0.0000 C   0  0
   -5.0396    2.3971    0.0000 C   0  0
   -6.5172    2.1389    0.0000 C   0  0
   -6.0022    3.5475    0.0000 C   0  0
   -4.5248    3.8059    0.0000 C   0  0
   -1.2990   -0.7500    0.0000 C   0  0
   -2.5981   -1.5000    0.0000 C   0  0
   -3.8971   -0.7500    0.0000 O   0  0
   -2.5981   -3.0000    0.0000 C   0  0
   -3.8971   -3.7500    0.0000 O   0  0
   -1.2990   -3.7500    0.0000 C   0  0
    0.0000   -3.0000    0.0000 C   0  0
    1.2991   -3.7500    0.0000 C   0  0  2  0  0  0
    2.5973   -2.9969    0.0000 O   0  0
    3.8990   -3.7438    0.0000 C   0  0
    3.9026   -5.2438    0.0000 C   0  0
    5.1965   -2.9911    0.0000 O   0  0
    1.2991   -5.2500    0.0000 C   0  0
    0.0000   -6.0000    0.0000 C   0  0  2  0  0  0
    1.2212   -6.8710    0.0000 C   0  0
   -0.2850   -7.4666    0.0000 C   0  0  1  0  0  0
    0.7319   -8.5693    0.0000 O   0  0
   -1.7758   -7.6330    0.0000 C   0  0
   -2.3947   -6.2666    0.0000 C   0  0
   -1.2990   -5.2500    0.0000 C   0  0  1  0  0  0
    0.0000   -1.5000    0.0000 C   0  0  1  0  0  0
    1.2990   -2.2500    0.0000 C   0  0
  1  2  1  0
  2  3  1  0
  4  3  1  6
  4  5  1  0
  5  6  1  0
  6  7  2  0
  6  8  1  0
  8  9  2  0
  9 10  1  0
 10 11  1  0
 11 12  1  0
 12 13  1  0
 13 14  1  0
 14 15  1  0
 14 16  1  0
 10 17  1  0
 17 18  1  0
 17 19  1  0
 17 20  1  0
  8 21  1  0
 21 22  2  0
 22 23  1  0
 22 24  1  0
 24 25  2  0
 24 26  1  0
 26 27  2  0
 27 28  1  0
 28 29  1  6
 29 30  1  0
 30 31  1  0
 30 32  2  0
 28 33  1  0
 33 34  1  0
 34 35  1  1
 34 36  1  0
 36 37  1  1
 36 38  1  0
 38 39  1  0
 40 39  1  1
 40 26  1  0
 40 34  1  0
 27 41  1  0
 41 21  1  0
 41  4  1  0
 41 42  1  1
M  END
> <assay_chembl_id>
CHEMBL950966

> <assay_description>
Growth inhibition of human LNCap cells

> <document_journal>
J Med Chem

> <molecule_chembl_id>
CHEMBL272816

> <standard_value>
919

> <IC50_uM>
0.919

> <Activity>
Yes

> <Canonical_Smiles>
COC[C@H]1OC(=O)/C(=C/N(CCCN(C)C)C(C)(C)C)C2=C(O)C(=O)C3=C([C@H](OC(C)=O)C[C@]4(C)[C@@H](O)CC[C@@H]34)[C@]21C

$$$$

  SciTegic03142313312D

 39 42  0  0  1  0            999 V2000
    5.1996   -1.4928    0.0000 C   0  0
    3.8990   -0.7455    0.0000 O   0  0
    2.6003   -1.4977    0.0000 C   0  0
    1.2990   -0.7500    0.0000 C   0  0  1  0  0  0
    1.2990    0.7500    0.0000 O   0  0
    0.0000    1.5000    0.0000 C   0  0
    0.0000    3.0000    0.0000 O   0  0
   -1.2990    0.7500    0.0000 C   0  0
   -2.5973    1.5031    0.0000 C   0  0
   -4.0760    1.2464    0.0000 N   0  0
   -4.5923   -0.1619    0.0000 C   0  0
   -5.0383    2.3981    0.0000 C   0  0
   -6.5170    2.1415    0.0000 C   0  0
   -7.4794    3.2931    0.0000 C   0  0
   -8.9581    3.0365    0.0000 N   0  0
   -9.9199    4.1875    0.0000 C   0  0
   -9.4745    1.6282    0.0000 C   0  0
   -1.2990   -0.7500    0.0000 C   0  0
   -2.5981   -1.5000    0.0000 C   0  0
   -3.8971   -0.7500    0.0000 O   0  0
   -2.5981   -3.0000    0.0000 C   0  0
   -3.8971   -3.7500    0.0000 O   0  0
   -1.2990   -3.7500    0.0000 C   0  0
    0.0000   -3.0000    0.0000 C   0  0
    1.2991   -3.7500    0.0000 C   0  0  2  0  0  0
    2.5973   -2.9969    0.0000 O   0  0
    3.8990   -3.7438    0.0000 C   0  0
    3.9026   -5.2438    0.0000 C   0  0
    5.1965   -2.9911    0.0000 O   0  0
    1.2991   -5.2500    0.0000 C   0  0
    0.0000   -6.0000    0.0000 C   0  0  2  0  0  0
    1.2212   -6.8710    0.0000 C   0  0
   -0.2850   -7.4666    0.0000 C   0  0  1  0  0  0
    0.7319   -8.5693    0.0000 O   0  0
   -1.7758   -7.6330    0.0000 C   0  0
   -2.3947   -6.2666    0.0000 C   0  0
   -1.2990   -5.2500    0.0000 C   0  0  1  0  0  0
    0.0000   -1.5000    0.0000 C   0  0  1  0  0  0
    1.2990   -2.2500    0.0000 C   0  0
  1  2  1  0
  2  3  1  0
  4  3  1  6
  4  5  1  0
  5  6  1  0
  6  7  2  0
  6  8  1  0
  8  9  2  0
  9 10  1  0
 10 11  1  0
 10 12  1  0
 12 13  1  0
 13 14  1  0
 14 15  1  0
 15 16  1  0
 15 17  1  0
  8 18  1  0
 18 19  2  0
 19 20  1  0
 19 21  1  0
 21 22  2  0
 21 23  1  0
 23 24  2  0
 24 25  1  0
 25 26  1  6
 26 27  1  0
 27 28  1  0
 27 29  2  0
 25 30  1  0
 30 31  1  0
 31 32  1  1
 31 33  1  0
 33 34  1  1
 33 35  1  0
 35 36  1  0
 37 36  1  1
 37 23  1  0
 37 31  1  0
 24 38  1  0
 38 18  1  0
 38  4  1  0
 38 39  1  1
M  END
> <assay_chembl_id>
CHEMBL950966

> <assay_description>
Growth inhibition of human LNCap cells

> <document_journal>
J Med Chem

> <molecule_chembl_id>
CHEMBL410643

> <standard_value>
389

> <IC50_uM>
0.389

> <Activity>
Yes

> <Canonical_Smiles>
COC[C@H]1OC(=O)/C(=C/N(C)CCCN(C)C)C2=C(O)C(=O)C3=C([C@H](OC(C)=O)C[C@]4(C)[C@@H](O)CC[C@@H]34)[C@]21C

$$$$

  SciTegic03142313312D

 38 41  0  0  1  0            999 V2000
    6.4008    2.3379    0.0000 C   0  0
    5.8889    0.9280    0.0000 C   0  0
    4.4112    0.6652    0.0000 C   0  0
    3.8990   -0.7455    0.0000 N   0  0
    2.6003   -1.4977    0.0000 C   0  0
    1.2990   -0.7500    0.0000 C   0  0
    0.0031   -1.5053    0.0000 C   0  0
    0.0093   -3.0053    0.0000 O   0  0
   -1.2990   -0.7607    0.0000 O   0  0
   -1.3052    0.7393    0.0000 C   0  0  2  0  0  0
   -2.6096    1.4817    0.0000 C   0  0
   -3.9051    0.7241    0.0000 O   0  0
   -5.2088    1.4661    0.0000 C   0  0
   -0.0092    1.4946    0.0000 C   0  0  1  0  0  0
   -1.3114    2.2393    0.0000 C   0  0
    1.2929    0.7500    0.0000 C   0  0
    2.5888    1.5053    0.0000 C   0  0
    3.8909    0.7607    0.0000 O   0  0
    2.5826    3.0053    0.0000 C   0  0
    3.8786    3.7607    0.0000 O   0  0
    1.2805    3.7500    0.0000 C   0  0
   -0.0154    2.9946    0.0000 C   0  0
   -1.3175    3.7393    0.0000 C   0  0  2  0  0  0
   -2.6126    2.9809    0.0000 O   0  0
   -3.9175    3.7224    0.0000 C   0  0
   -3.9272    5.2224    0.0000 C   0  0
   -5.2119    2.9644    0.0000 O   0  0
   -1.3237    5.2393    0.0000 C   0  0
   -0.0278    5.9946    0.0000 C   0  0  2  0  0  0
   -1.2525    6.8606    0.0000 C   0  0
    0.2513    7.4624    0.0000 C   0  0
   -0.7702    8.5609    0.0000 O   0  0
    1.7413    7.6348    0.0000 C   0  0
    2.3658    6.2710    0.0000 C   0  0
    1.2744    5.2500    0.0000 C   0  0  1  0  0  0
    5.1981   -1.4971    0.0000 C   0  0
    5.1976   -2.9979    0.0000 C   0  0
    6.4959   -3.7492    0.0000 C   0  0
  1  2  2  0
  2  3  1  0
  3  4  1  0
  4  5  1  0
  5  6  2  0
  6  7  1  0
  7  8  2  0
  7  9  1  0
  9 10  1  0
 10 11  1  6
 11 12  1  0
 12 13  1  0
 10 14  1  0
 14 15  1  1
 14 16  1  0
 16  6  1  0
 16 17  2  0
 17 18  1  0
 17 19  1  0
 19 20  2  0
 19 21  1  0
 21 22  2  0
 22 14  1  0
 22 23  1  0
 23 24  1  6
 24 25  1  0
 25 26  1  0
 25 27  2  0
 23 28  1  0
 28 29  1  0
 29 30  1  1
 29 31  1  0
 31 32  2  0
 31 33  1  0
 33 34  1  0
 35 34  1  1
 35 21  1  0
 35 29  1  0
  4 36  1  0
 36 37  1  0
 37 38  2  0
M  END
> <assay_chembl_id>
CHEMBL950966

> <assay_description>
Growth inhibition of human LNCap cells

> <document_journal>
J Med Chem

> <molecule_chembl_id>
CHEMBL411907

> <standard_value>
573

> <IC50_uM>
0.573

> <Activity>
Yes

> <Canonical_Smiles>
C=CCN(/C=C1/C(=O)O[C@H](COC)[C@@]2(C)C1=C(O)C(=O)C1=C2[C@H](OC(C)=O)C[C@]2(C)C(=O)CC[C@@H]12)CC=C

$$$$

  SciTegic03142313312D

 36 40  0  0  1  0            999 V2000
    5.4201    1.7547    0.0000 C   0  0
    3.9423    2.0122    0.0000 O   0  0
    2.9793    0.8611    0.0000 C   0  0
    1.5007    1.1187    0.0000 C   0  0  1  0  0  0
    0.9877    2.5282    0.0000 O   0  0
   -0.4896    2.7887    0.0000 C   0  0
   -1.0026    4.1982    0.0000 O   0  0
   -1.4537    1.6396    0.0000 C   0  0
   -2.9312    1.9033    0.0000 C   0  0
   -3.8990    0.7562    0.0000 N   0  0
   -5.2500    1.3780    0.0000 C   0  0
   -6.2544    0.2639    0.0000 C   0  0
   -5.5052   -1.0356    0.0000 C   0  0
   -4.0378   -0.7246    0.0000 C   0  0
   -0.9407    0.2301    0.0000 C   0  0
   -1.9049   -0.9190    0.0000 C   0  0
   -3.3821   -0.6585    0.0000 O   0  0
   -1.3918   -2.3285    0.0000 C   0  0
   -2.3560   -3.4776    0.0000 O   0  0
    0.0854   -2.5890    0.0000 C   0  0
    1.0496   -1.4399    0.0000 C   0  0
    2.5268   -1.7004    0.0000 C   0  0  2  0  0  0
    3.4891   -0.5487    0.0000 O   0  0
    4.9678   -0.8053    0.0000 C   0  0
    5.4842   -2.2136    0.0000 C   0  0
    5.9296    0.3457    0.0000 O   0  0
    3.0398   -3.1099    0.0000 C   0  0
    2.0756   -4.2590    0.0000 C   0  0  2  0  0  0
    3.5211   -4.6598    0.0000 C   0  0
    2.3094   -5.7347    0.0000 C   0  0  1  0  0  0
    3.6421   -6.4230    0.0000 O   0  0
    0.9654   -6.4008    0.0000 C   0  0
   -0.0835   -5.3285    0.0000 C   0  0
    0.5984   -3.9985    0.0000 C   0  0  1  0  0  0
    0.5365   -0.0304    0.0000 C   0  0  1  0  0  0
    2.0137   -0.2909    0.0000 C   0  0
  1  2  1  0
  2  3  1  0
  4  3  1  6
  4  5  1  0
  5  6  1  0
  6  7  2  0
  6  8  1  0
  8  9  2  0
  9 10  1  0
 10 11  1  0
 11 12  1  0
 12 13  1  0
 13 14  1  0
 14 10  1  0
  8 15  1  0
 15 16  2  0
 16 17  1  0
 16 18  1  0
 18 19  2  0
 18 20  1  0
 20 21  2  0
 21 22  1  0
 22 23  1  6
 23 24  1  0
 24 25  1  0
 24 26  2  0
 22 27  1  0
 27 28  1  0
 28 29  1  1
 28 30  1  0
 30 31  1  1
 30 32  1  0
 32 33  1  0
 34 33  1  1
 34 20  1  0
 34 28  1  0
 21 35  1  0
 35 15  1  0
 35  4  1  0
 35 36  1  1
M  END
> <assay_chembl_id>
CHEMBL950966

> <assay_description>
Growth inhibition of human LNCap cells

> <document_journal>
J Med Chem

> <molecule_chembl_id>
CHEMBL428873

> <standard_value>
257

> <IC50_uM>
0.257

> <Activity>
Yes

> <Canonical_Smiles>
COC[C@H]1OC(=O)/C(=C/N2CCCC2)C2=C(O)C(=O)C3=C([C@H](OC(C)=O)C[C@]4(C)[C@@H](O)CC[C@@H]34)[C@]21C

$$$$

  SciTegic03142313312D

 37 40  0  0  1  0            999 V2000
    8.9666   -3.0051    0.0000 C   0  0
    7.4898   -3.2677    0.0000 C   0  0
    6.5227   -2.1200    0.0000 C   0  0
    5.0451   -2.3827    0.0000 C   0  0
    4.0780   -1.2350    0.0000 N   0  0
    4.5886    0.1754    0.0000 C   0  0
    2.6003   -1.4977    0.0000 C   0  0
    1.2990   -0.7500    0.0000 C   0  0
    0.0031   -1.5053    0.0000 C   0  0
    0.0093   -3.0053    0.0000 O   0  0
   -1.2990   -0.7607    0.0000 O   0  0
   -1.3052    0.7393    0.0000 C   0  0  2  0  0  0
   -2.6096    1.4817    0.0000 C   0  0
   -3.9051    0.7241    0.0000 O   0  0
   -5.2088    1.4661    0.0000 C   0  0
   -0.0092    1.4946    0.0000 C   0  0  1  0  0  0
   -1.3114    2.2393    0.0000 C   0  0
    1.2929    0.7500    0.0000 C   0  0
    2.5888    1.5053    0.0000 C   0  0
    3.8909    0.7607    0.0000 O   0  0
    2.5826    3.0053    0.0000 C   0  0
    3.8786    3.7607    0.0000 O   0  0
    1.2805    3.7500    0.0000 C   0  0
   -0.0154    2.9946    0.0000 C   0  0
   -1.3175    3.7393    0.0000 C   0  0  2  0  0  0
   -2.6126    2.9809    0.0000 O   0  0
   -3.9175    3.7224    0.0000 C   0  0
   -3.9272    5.2224    0.0000 C   0  0
   -5.2119    2.9644    0.0000 O   0  0
   -1.3237    5.2393    0.0000 C   0  0
   -0.0278    5.9946    0.0000 C   0  0  2  0  0  0
   -1.2525    6.8606    0.0000 C   0  0
    0.2513    7.4624    0.0000 C   0  0  1  0  0  0
   -0.7702    8.5609    0.0000 O   0  0
    1.7413    7.6348    0.0000 C   0  0
    2.3658    6.2710    0.0000 C   0  0
    1.2744    5.2500    0.0000 C   0  0  1  0  0  0
  1  2  1  0
  2  3  1  0
  3  4  1  0
  4  5  1  0
  5  6  1  0
  5  7  1  0
  7  8  2  0
  8  9  1  0
  9 10  2  0
  9 11  1  0
 11 12  1  0
 12 13  1  6
 13 14  1  0
 14 15  1  0
 12 16  1  0
 16 17  1  1
 16 18  1  0
 18  8  1  0
 18 19  2  0
 19 20  1  0
 19 21  1  0
 21 22  2  0
 21 23  1  0
 23 24  2  0
 24 16  1  0
 24 25  1  0
 25 26  1  6
 26 27  1  0
 27 28  1  0
 27 29  2  0
 25 30  1  0
 30 31  1  0
 31 32  1  1
 31 33  1  0
 33 34  1  1
 33 35  1  0
 35 36  1  0
 37 36  1  1
 37 23  1  0
 37 31  1  0
M  END
> <assay_chembl_id>
CHEMBL950966

> <assay_description>
Growth inhibition of human LNCap cells

> <document_journal>
J Med Chem

> <molecule_chembl_id>
CHEMBL409251

> <standard_value>
203

> <IC50_uM>
0.203

> <Activity>
Yes

> <Canonical_Smiles>
CCCCN(C)/C=C1/C(=O)O[C@H](COC)[C@@]2(C)C1=C(O)C(=O)C1=C2[C@H](OC(C)=O)C[C@]2(C)[C@@H](O)CC[C@@H]12

$$$$

  SciTegic03142313312D

 36 39  0  0  1  0            999 V2000
    5.1996   -1.4928    0.0000 C   0  0
    3.8990   -0.7455    0.0000 O   0  0
    2.6003   -1.4977    0.0000 C   0  0
    1.2990   -0.7500    0.0000 C   0  0  1  0  0  0
    1.2990    0.7500    0.0000 O   0  0
    0.0000    1.5000    0.0000 C   0  0
    0.0000    3.0000    0.0000 O   0  0
   -1.2990    0.7500    0.0000 C   0  0
   -2.5973    1.5031    0.0000 C   0  0
   -3.8990    0.7562    0.0000 N   0  0
   -5.1972    1.5092    0.0000 C   0  0
   -6.4983    0.7627    0.0000 C   0  0
   -5.1937    3.0092    0.0000 C   0  0
   -6.4944    2.2625    0.0000 C   0  0
   -1.2990   -0.7500    0.0000 C   0  0
   -2.5981   -1.5000    0.0000 C   0  0
   -3.8971   -0.7500    0.0000 O   0  0
   -2.5981   -3.0000    0.0000 C   0  0
   -3.8971   -3.7500    0.0000 O   0  0
   -1.2990   -3.7500    0.0000 C   0  0
    0.0000   -3.0000    0.0000 C   0  0
    1.2991   -3.7500    0.0000 C   0  0  2  0  0  0
    2.5973   -2.9969    0.0000 O   0  0
    3.8990   -3.7438    0.0000 C   0  0
    3.9026   -5.2438    0.0000 C   0  0
    5.1965   -2.9911    0.0000 O   0  0
    1.2991   -5.2500    0.0000 C   0  0
    0.0000   -6.0000    0.0000 C   0  0  2  0  0  0
    1.2212   -6.8710    0.0000 C   0  0
   -0.2850   -7.4666    0.0000 C   0  0  1  0  0  0
    0.7319   -8.5693    0.0000 O   0  0
   -1.7758   -7.6330    0.0000 C   0  0
   -2.3947   -6.2666    0.0000 C   0  0
   -1.2990   -5.2500    0.0000 C   0  0  1  0  0  0
    0.0000   -1.5000    0.0000 C   0  0  1  0  0  0
    1.2990   -2.2500    0.0000 C   0  0
  1  2  1  0
  2  3  1  0
  4  3  1  6
  4  5  1  0
  5  6  1  0
  6  7  2  0
  6  8  1  0
  8  9  2  0
  9 10  1  0
 10 11  1  0
 11 12  1  0
 11 13  1  0
 11 14  1  0
  8 15  1  0
 15 16  2  0
 16 17  1  0
 16 18  1  0
 18 19  2  0
 18 20  1  0
 20 21  2  0
 21 22  1  0
 22 23  1  6
 23 24  1  0
 24 25  1  0
 24 26  2  0
 22 27  1  0
 27 28  1  0
 28 29  1  1
 28 30  1  0
 30 31  1  1
 30 32  1  0
 32 33  1  0
 34 33  1  1
 34 20  1  0
 34 28  1  0
 21 35  1  0
 35 15  1  0
 35  4  1  0
 35 36  1  1
M  END
> <assay_chembl_id>
CHEMBL950966

> <assay_description>
Growth inhibition of human LNCap cells

> <document_journal>
J Med Chem

> <molecule_chembl_id>
CHEMBL272190

> <standard_value>
40700

> <IC50_uM>
40.7

> <Activity>
No

> <Canonical_Smiles>
COC[C@H]1OC(=O)/C(=C/NC(C)(C)C)C2=C(O)C(=O)C3=C([C@H](OC(C)=O)C[C@]4(C)[C@@H](O)CC[C@@H]34)[C@]21C

$$$$

  SciTegic03142313312D

 37 40  0  0  1  0            999 V2000
    5.1996   -1.4928    0.0000 C   0  0
    3.8990   -0.7455    0.0000 O   0  0
    2.6003   -1.4977    0.0000 C   0  0
    1.2990   -0.7500    0.0000 C   0  0  1  0  0  0
    1.2990    0.7500    0.0000 O   0  0
    0.0000    1.5000    0.0000 C   0  0
    0.0000    3.0000    0.0000 O   0  0
   -1.2990    0.7500    0.0000 C   0  0
   -2.5973    1.5031    0.0000 C   0  0
   -4.0760    1.2464    0.0000 N   0  0
   -4.5923   -0.1619    0.0000 C   0  0
   -5.0383    2.3981    0.0000 C   0  0
   -6.5162    2.1416    0.0000 C   0  0
   -5.9996    3.5496    0.0000 C   0  0
   -4.5220    3.8064    0.0000 C   0  0
   -1.2990   -0.7500    0.0000 C   0  0
   -2.5981   -1.5000    0.0000 C   0  0
   -3.8971   -0.7500    0.0000 O   0  0
   -2.5981   -3.0000    0.0000 C   0  0
   -3.8971   -3.7500    0.0000 O   0  0
   -1.2990   -3.7500    0.0000 C   0  0
    0.0000   -3.0000    0.0000 C   0  0
    1.2991   -3.7500    0.0000 C   0  0  2  0  0  0
    2.5973   -2.9969    0.0000 O   0  0
    3.8990   -3.7438    0.0000 C   0  0
    3.9026   -5.2438    0.0000 C   0  0
    5.1965   -2.9911    0.0000 O   0  0
    1.2991   -5.2500    0.0000 C   0  0
    0.0000   -6.0000    0.0000 C   0  0  2  0  0  0
    1.2212   -6.8710    0.0000 C   0  0
   -0.2850   -7.4666    0.0000 C   0  0  1  0  0  0
    0.7319   -8.5693    0.0000 O   0  0
   -1.7758   -7.6330    0.0000 C   0  0
   -2.3947   -6.2666    0.0000 C   0  0
   -1.2990   -5.2500    0.0000 C   0  0  1  0  0  0
    0.0000   -1.5000    0.0000 C   0  0  1  0  0  0
    1.2990   -2.2500    0.0000 C   0  0
  1  2  1  0
  2  3  1  0
  4  3  1  6
  4  5  1  0
  5  6  1  0
  6  7  2  0
  6  8  1  0
  8  9  2  0
  9 10  1  0
 10 11  1  0
 10 12  1  0
 12 13  1  0
 12 14  1  0
 12 15  1  0
  8 16  1  0
 16 17  2  0
 17 18  1  0
 17 19  1  0
 19 20  2  0
 19 21  1  0
 21 22  2  0
 22 23  1  0
 23 24  1  6
 24 25  1  0
 25 26  1  0
 25 27  2  0
 23 28  1  0
 28 29  1  0
 29 30  1  1
 29 31  1  0
 31 32  1  1
 31 33  1  0
 33 34  1  0
 35 34  1  1
 35 21  1  0
 35 29  1  0
 22 36  1  0
 36 16  1  0
 36  4  1  0
 36 37  1  1
M  END
> <assay_chembl_id>
CHEMBL950966

> <assay_description>
Growth inhibition of human LNCap cells

> <document_journal>
J Med Chem

> <molecule_chembl_id>
CHEMBL270746

> <standard_value>
189

> <IC50_uM>
0.189

> <Activity>
Yes

> <Canonical_Smiles>
COC[C@H]1OC(=O)/C(=C/N(C)C(C)(C)C)C2=C(O)C(=O)C3=C([C@H](OC(C)=O)C[C@]4(C)[C@@H](O)CC[C@@H]34)[C@]21C

$$$$

  SciTegic03142313312D

 39 42  0  0  1  0            999 V2000
    5.1996   -1.4928    0.0000 C   0  0
    3.8990   -0.7455    0.0000 O   0  0
    2.6003   -1.4977    0.0000 C   0  0
    1.2990   -0.7500    0.0000 C   0  0  1  0  0  0
    1.2990    0.7500    0.0000 O   0  0
    0.0000    1.5000    0.0000 C   0  0
    0.0000    3.0000    0.0000 O   0  0
   -1.2990    0.7500    0.0000 C   0  0
   -2.5973    1.5031    0.0000 C   0  0
   -4.0760    1.2464    0.0000 N   0  0
   -4.5940   -0.1622    0.0000 C   0  0
   -6.0727   -0.4188    0.0000 C   0  0
   -6.5904   -1.8266    0.0000 O   0  0
   -5.0396    2.3971    0.0000 C   0  0
   -6.5172    2.1389    0.0000 C   0  0
   -6.0022    3.5475    0.0000 C   0  0
   -4.5248    3.8059    0.0000 C   0  0
   -1.2990   -0.7500    0.0000 C   0  0
   -2.5981   -1.5000    0.0000 C   0  0
   -3.8971   -0.7500    0.0000 O   0  0
   -2.5981   -3.0000    0.0000 C   0  0
   -3.8971   -3.7500    0.0000 O   0  0
   -1.2990   -3.7500    0.0000 C   0  0
    0.0000   -3.0000    0.0000 C   0  0
    1.2991   -3.7500    0.0000 C   0  0  2  0  0  0
    2.5973   -2.9969    0.0000 O   0  0
    3.8990   -3.7438    0.0000 C   0  0
    3.9026   -5.2438    0.0000 C   0  0
    5.1965   -2.9911    0.0000 O   0  0
    1.2991   -5.2500    0.0000 C   0  0
    0.0000   -6.0000    0.0000 C   0  0  2  0  0  0
    1.2212   -6.8710    0.0000 C   0  0
   -0.2850   -7.4666    0.0000 C   0  0  1  0  0  0
    0.7319   -8.5693    0.0000 O   0  0
   -1.7758   -7.6330    0.0000 C   0  0
   -2.3947   -6.2666    0.0000 C   0  0
   -1.2990   -5.2500    0.0000 C   0  0  1  0  0  0
    0.0000   -1.5000    0.0000 C   0  0  1  0  0  0
    1.2990   -2.2500    0.0000 C   0  0
  1  2  1  0
  2  3  1  0
  4  3  1  6
  4  5  1  0
  5  6  1  0
  6  7  2  0
  6  8  1  0
  8  9  2  0
  9 10  1  0
 10 11  1  0
 11 12  1  0
 12 13  1  0
 10 14  1  0
 14 15  1  0
 14 16  1  0
 14 17  1  0
  8 18  1  0
 18 19  2  0
 19 20  1  0
 19 21  1  0
 21 22  2  0
 21 23  1  0
 23 24  2  0
 24 25  1  0
 25 26  1  6
 26 27  1  0
 27 28  1  0
 27 29  2  0
 25 30  1  0
 30 31  1  0
 31 32  1  1
 31 33  1  0
 33 34  1  1
 33 35  1  0
 35 36  1  0
 37 36  1  1
 37 23  1  0
 37 31  1  0
 24 38  1  0
 38 18  1  0
 38  4  1  0
 38 39  1  1
M  END
> <assay_chembl_id>
CHEMBL950966

> <assay_description>
Growth inhibition of human LNCap cells

> <document_journal>
J Med Chem

> <molecule_chembl_id>
CHEMBL271190

> <standard_value>
128

> <IC50_uM>
0.128

> <Activity>
Yes

> <Canonical_Smiles>
COC[C@H]1OC(=O)/C(=C/N(CCO)C(C)(C)C)C2=C(O)C(=O)C3=C([C@H](OC(C)=O)C[C@]4(C)[C@@H](O)CC[C@@H]34)[C@]21C

$$$$

  SciTegic03142313312D

 33 36  0  0  1  0            999 V2000
    5.8881    0.9278    0.0000 C   0  0
    4.4112    0.6652    0.0000 C   0  0
    3.8990   -0.7455    0.0000 N   0  0
    2.6003   -1.4977    0.0000 C   0  0
    1.2990   -0.7500    0.0000 C   0  0
    0.0031   -1.5053    0.0000 C   0  0
    0.0093   -3.0053    0.0000 O   0  0
   -1.2990   -0.7607    0.0000 O   0  0
   -1.3052    0.7393    0.0000 C   0  0  2  0  0  0
   -2.6096    1.4817    0.0000 C   0  0
   -3.9051    0.7241    0.0000 O   0  0
   -5.2088    1.4661    0.0000 C   0  0
   -0.0092    1.4946    0.0000 C   0  0  1  0  0  0
   -1.3114    2.2393    0.0000 C   0  0
    1.2929    0.7500    0.0000 C   0  0
    2.5888    1.5053    0.0000 C   0  0
    3.8909    0.7607    0.0000 O   0  0
    2.5826    3.0053    0.0000 C   0  0
    3.8786    3.7607    0.0000 O   0  0
    1.2805    3.7500    0.0000 C   0  0
   -0.0154    2.9946    0.0000 C   0  0
   -1.3175    3.7393    0.0000 C   0  0  2  0  0  0
   -2.6135    2.9839    0.0000 O   0  0
   -1.3237    5.2393    0.0000 C   0  0
   -0.0278    5.9946    0.0000 C   0  0  2  0  0  0
   -1.2525    6.8606    0.0000 C   0  0
    0.2513    7.4624    0.0000 C   0  0  1  0  0  0
   -0.7702    8.5609    0.0000 O   0  0
    1.7413    7.6348    0.0000 C   0  0
    2.3658    6.2710    0.0000 C   0  0
    1.2744    5.2500    0.0000 C   0  0  1  0  0  0
    5.1981   -1.4971    0.0000 C   0  0
    5.1976   -2.9971    0.0000 C   0  0
  1  2  1  0
  2  3  1  0
  3  4  1  0
  4  5  2  0
  5  6  1  0
  6  7  2  0
  6  8  1  0
  8  9  1  0
  9 10  1  6
 10 11  1  0
 11 12  1  0
  9 13  1  0
 13 14  1  1
 13 15  1  0
 15  5  1  0
 15 16  2  0
 16 17  1  0
 16 18  1  0
 18 19  2  0
 18 20  1  0
 20 21  2  0
 21 13  1  0
 21 22  1  0
 22 23  1  6
 22 24  1  0
 24 25  1  0
 25 26  1  1
 25 27  1  0
 27 28  1  1
 27 29  1  0
 29 30  1  0
 31 30  1  1
 31 20  1  0
 31 25  1  0
  3 32  1  0
 32 33  1  0
M  END
> <assay_chembl_id>
CHEMBL950966

> <assay_description>
Growth inhibition of human LNCap cells

> <document_journal>
J Med Chem

> <molecule_chembl_id>
CHEMBL406655

> <standard_value>
710

> <IC50_uM>
0.71

> <Activity>
Yes

> <Canonical_Smiles>
CCN(/C=C1/C(=O)O[C@H](COC)[C@@]2(C)C1=C(O)C(=O)C1=C2[C@H](O)C[C@]2(C)[C@@H](O)CC[C@@H]12)CC

$$$$

  SciTegic03142313312D

 28 30  0  0  0  0            999 V2000
    2.5981   -1.5000    0.0000 N   0  0
    1.2990   -0.7500    0.0000 C   0  0
    1.2990    0.7500    0.0000 C   0  0
    0.0000    1.5000    0.0000 C   0  0
   -1.2990    0.7500    0.0000 C   0  0
   -1.2990   -0.7500    0.0000 C   0  0
    0.0000   -1.5000    0.0000 C   0  0
   -0.0031   -3.0008    0.0000 N   0  0
   -1.3039   -3.7494    0.0000 C   0  0
   -2.6016   -2.9971    0.0000 O   0  0
   -1.3070   -5.2502    0.0000 C   0  0
   -2.6060   -6.0003    0.0000 C   0  0
   -2.6060   -7.5003    0.0000 C   0  0
   -1.3070   -8.2503    0.0000 C   0  0
   -1.3040   -9.7511    0.0000 C   0  0
   -0.0032  -10.4997    0.0000 N   0  0
   -0.0001  -12.0006    0.0000 C   0  0
   -1.2978  -12.7528    0.0000 O   0  0
    1.3007  -12.7491    0.0000 O   0  0
    1.3038  -14.2500    0.0000 C   0  0
    2.6046  -14.9985    0.0000 C   0  0
    2.6098  -16.4986    0.0000 C   0  0
    3.9114  -17.2441    0.0000 C   0  0
    5.2079  -16.4896    0.0000 C   0  0
    5.2027  -14.9896    0.0000 N   0  0
    3.9011  -14.2441    0.0000 C   0  0
   -0.0080   -7.5003    0.0000 C   0  0
   -0.0079   -6.0003    0.0000 C   0  0
  1  2  1  0
  2  3  2  0
  3  4  1  0
  4  5  2  0
  5  6  1  0
  6  7  2  0
  7  2  1  0
  7  8  1  0
  8  9  1  0
  9 10  2  0
  9 11  1  0
 11 12  2  0
 12 13  1  0
 13 14  2  0
 14 15  1  0
 15 16  1  0
 16 17  1  0
 17 18  2  0
 17 19  1  0
 19 20  1  0
 20 21  1  0
 21 22  2  0
 22 23  1  0
 23 24  2  0
 24 25  1  0
 25 26  2  0
 26 21  1  0
 14 27  1  0
 27 28  2  0
 28 11  1  0
M  END
> <assay_chembl_id>
CHEMBL936595

> <assay_description>
Antiproliferative activity against human LNCap by MTT assay

> <document_journal>
Bioorg Med Chem

> <molecule_chembl_id>
CHEMBL27759

> <standard_value>
360

> <IC50_uM>
0.36

> <Activity>
Yes

> <Canonical_Smiles>
Nc1ccccc1NC(=O)c1ccc(CNC(=O)OCc2cccnc2)cc1

$$$$

  SciTegic03142313312D

 30 34  0  0  0  0            999 V2000
   -5.3864   -6.7681    0.0000 N   0  0
   -3.9462   -7.1872    0.0000 C   0  0
   -3.5894   -8.6441    0.0000 O   0  0
   -2.8628   -6.1485    0.0000 C   0  0
   -1.4233   -6.5700    0.0000 C   0  0
   -0.3384   -5.5341    0.0000 C   0  0
   -0.6928   -4.0817    0.0000 C   0  0
    0.3114   -2.9665    0.0000 N   0  0
    1.8032   -3.1233    0.0000 C   0  0
    2.4133   -1.7530    0.0000 C   0  0
    1.2990   -0.7500    0.0000 C   0  0
    1.2990    0.7500    0.0000 C   0  0
    0.0000    1.5000    0.0000 C   0  0
   -1.2990    0.7500    0.0000 C   0  0
   -1.2990   -0.7500    0.0000 C   0  0
    0.0000   -1.5000    0.0000 C   0  0
    3.9040   -1.5956    0.0000 C   0  0
    4.5138   -0.2252    0.0000 O   0  0
    4.7857   -2.8092    0.0000 C   0  0
    4.1756   -4.1795    0.0000 C   0  0
    2.6838   -4.3363    0.0000 C   0  0
   -2.1327   -3.6551    0.0000 C   0  0
   -3.2175   -4.6910    0.0000 C   0  0
   -4.6570   -4.2663    0.0000 N   0  0
   -5.0098   -2.8075    0.0000 C   0  0
   -6.4479   -2.3809    0.0000 C   0  0
   -6.7976   -0.9222    0.0000 C   0  0
   -5.7092    0.1100    0.0000 O   0  0
   -4.2711   -0.3166    0.0000 C   0  0
   -3.9214   -1.7752    0.0000 C   0  0
  1  2  1  0
  2  3  2  0
  2  4  1  0
  4  5  2  0
  5  6  1  0
  6  7  2  0
  7  8  1  0
  8  9  1  0
  9 10  2  0
 10 11  1  0
 11 12  2  0
 12 13  1  0
 13 14  2  0
 14 15  1  0
 15 16  2  0
 16 11  1  0
 16  8  1  0
 10 17  1  0
 17 18  2  0
 17 19  1  0
 19 20  1  0
 20 21  1  0
 21  9  1  0
  7 22  1  0
 22 23  2  0
 23  4  1  0
 23 24  1  0
 24 25  1  0
 25 26  1  0
 26 27  1  0
 27 28  1  0
 28 29  1  0
 29 30  1  0
 30 25  1  0
M  END
> <assay_chembl_id>
CHEMBL923783

> <assay_description>
Inhibition of cell proliferation in human LNCAP cells

> <document_journal>
Bioorg Med Chem Lett

> <molecule_chembl_id>
CHEMBL257334

> <standard_value>
700

> <IC50_uM>
0.7

> <Activity>
Yes

> <Canonical_Smiles>
NC(=O)c1ccc(-n2c3c(c4ccccc42)C(=O)CCC3)cc1NC1CCOCC1

$$$$

  SciTegic03142313312D

 30 31  0  0  0  0            999 V2000
    2.5951   -3.0031    0.0000 C   0  0
    2.5973   -1.5031    0.0000 O   0  0
    1.2990   -0.7500    0.0000 C   0  0
    1.2990    0.7500    0.0000 C   0  0
    0.0000    1.5000    0.0000 C   0  0
    0.0031    3.0008    0.0000 O   0  0
    1.3032    3.7490    0.0000 C   0  0
   -1.2990    0.7500    0.0000 C   0  0
   -2.6003    1.4977    0.0000 C   0  0
   -3.8990    0.7455    0.0000 C   0  0
   -5.2003    1.4932    0.0000 C   0  0
   -5.2029    2.9932    0.0000 O   0  0
   -6.4990    0.7409    0.0000 C   0  0
   -7.8003    1.4887    0.0000 C   0  0
   -9.0990    0.7364    0.0000 C   0  0
  -10.4007    1.4818    0.0000 C   0  0
  -10.4090    2.9826    0.0000 O   0  0
  -11.7117    3.7262    0.0000 C   0  0
  -11.6971    0.7273    0.0000 C   0  0
  -11.6919   -0.7727    0.0000 C   0  0
  -12.9875   -1.5302    0.0000 O   0  0
  -12.9802   -3.0302    0.0000 C   0  0
  -10.3903   -1.5182    0.0000 C   0  0
   -9.0939   -0.7637    0.0000 C   0  0
   -7.7931   -1.5123    0.0000 O   0  0
   -7.7901   -3.0123    0.0000 C   0  0
   -1.2990   -0.7500    0.0000 C   0  0
   -2.5972   -1.5031    0.0000 O   0  0
   -2.5951   -3.0031    0.0000 C   0  0
    0.0000   -1.5000    0.0000 C   0  0
  1  2  1  0
  2  3  1  0
  3  4  2  0
  4  5  1  0
  5  6  1  0
  6  7  1  0
  5  8  2  0
  8  9  1  0
  9 10  2  0
 10 11  1  0
 11 12  2  0
 11 13  1  0
 13 14  2  0
 14 15  1  0
 15 16  2  0
 16 17  1  0
 17 18  1  0
 16 19  1  0
 19 20  2  0
 20 21  1  0
 21 22  1  0
 20 23  1  0
 23 24  2  0
 24 15  1  0
 24 25  1  0
 25 26  1  0
  8 27  1  0
 27 28  1  0
 28 29  1  0
 27 30  2  0
 30  3  1  0
M  END
> <assay_chembl_id>
CHEMBL953528

> <assay_description>
Antiproliferative activity against human LNCAP cells after 72 hrs by MTT assay

> <document_journal>
Bioorg Med Chem Lett

> <molecule_chembl_id>
CHEMBL492966

> <standard_value>
500

> <IC50_uM>
0.5

> <Activity>
Yes

> <Canonical_Smiles>
COc1cc(OC)c(/C=C/C(=O)/C=C/c2c(OC)cc(OC)cc2OC)c(OC)c1

$$$$

  SciTegic03142313312D

 31 32  0  0  0  0            999 V2000
    3.8983   -0.7459    0.0000 C   0  0
    2.6003   -1.4977    0.0000 O   0  0
    1.2990   -0.7500    0.0000 C   0  0
    1.2990    0.7500    0.0000 C   0  0
    0.0000    1.5000    0.0000 C   0  0
   -0.0031    3.0008    0.0000 C   0  0
   -1.3039    3.7494    0.0000 C   0  0
   -1.3070    5.2502    0.0000 C   0  0
   -0.0093    6.0025    0.0000 O   0  0
   -2.6078    5.9988    0.0000 C   0  0
   -2.6109    7.4996    0.0000 C   0  0
   -1.3132    8.2519    0.0000 O   0  0
   -3.9118    8.2481    0.0000 C   0  0
   -3.9149    9.7490    0.0000 C   0  0
   -5.2157   10.4975    0.0000 C   0  0
   -5.2210   11.9975    0.0000 C   0  0
   -6.5226   12.7430    0.0000 C   0  0
   -7.8190   11.9885    0.0000 C   0  0
   -9.1199   12.7371    0.0000 O   0  0
   -9.1229   14.2379    0.0000 S   0  0
   -7.8252   14.9902    0.0000 N   0  0
  -10.4230   14.9861    0.0000 O   0  0
   -9.1253   15.7379    0.0000 O   0  0
   -7.8138   10.4885    0.0000 C   0  0
   -9.1094    9.7310    0.0000 O   0  0
   -9.1021    8.2310    0.0000 C   0  0
   -6.5122    9.7430    0.0000 C   0  0
   -1.2990    0.7500    0.0000 C   0  0
   -1.2990   -0.7500    0.0000 C   0  0
    0.0000   -1.5000    0.0000 C   0  0
    0.0000   -3.0000    0.0000 O   0  0
  1  2  1  0
  2  3  1  0
  3  4  2  0
  4  5  1  0
  5  6  1  0
  6  7  2  0
  7  8  1  0
  8  9  1  0
  8 10  2  0
 10 11  1  0
 11 12  2  0
 11 13  1  0
 13 14  2  0
 14 15  1  0
 15 16  2  0
 16 17  1  0
 17 18  2  0
 18 19  1  0
 19 20  1  0
 20 21  1  0
 20 22  2  0
 20 23  2  0
 18 24  1  0
 24 25  1  0
 25 26  1  0
 24 27  2  0
 27 15  1  0
  5 28  2  0
 28 29  1  0
 29 30  2  0
 30  3  1  0
 30 31  1  0
M  END
> <assay_chembl_id>
CHEMBL953528

> <assay_description>
Antiproliferative activity against human LNCAP cells after 72 hrs by MTT assay

> <document_journal>
Bioorg Med Chem Lett

> <molecule_chembl_id>
CHEMBL493990

> <standard_value>
20000

> <IC50_uM>
20

> <Activity>
No

> <Canonical_Smiles>
COc1cc(/C=C/C(O)=C/C(=O)/C=C/c2ccc(OS(N)(=O)=O)c(OC)c2)ccc1O

$$$$

  SciTegic03142313312D

 37 38  0  0  0  0            999 V2000
    3.8964    0.7545    0.0000 C   0  0
    3.8990   -0.7455    0.0000 C   0  0
    5.1996   -1.4928    0.0000 O   0  0
    2.6003   -1.4977    0.0000 O   0  0
    1.2990   -0.7500    0.0000 C   0  0
    1.2990    0.7500    0.0000 C   0  0
    0.0000    1.5000    0.0000 C   0  0
   -1.2990    0.7500    0.0000 C   0  0
   -2.6003    1.4977    0.0000 C   0  0
   -3.8990    0.7455    0.0000 C   0  0
   -5.2003    1.4932    0.0000 C   0  0
   -5.2029    2.9932    0.0000 O   0  0
   -6.4990    0.7409    0.0000 C   0  0
   -7.8003    1.4887    0.0000 C   0  0
   -7.8029    2.9887    0.0000 O   0  0
   -9.0990    0.7364    0.0000 C   0  0
  -10.4003    1.4841    0.0000 C   0  0
  -11.6990    0.7318    0.0000 C   0  0
  -13.0007    1.4773    0.0000 C   0  0
  -14.2971    0.7228    0.0000 C   0  0
  -14.2919   -0.7772    0.0000 C   0  0
  -15.5906   -1.5295    0.0000 O   0  0
  -16.8919   -0.7817    0.0000 C   0  0
  -16.8945    0.7183    0.0000 C   0  0
  -18.1899   -1.5335    0.0000 O   0  0
  -12.9903   -1.5227    0.0000 C   0  0
  -12.9820   -3.0235    0.0000 O   0  0
  -11.6786   -3.7676    0.0000 C   0  0
  -10.3835   -3.0108    0.0000 C   0  0
  -11.6703   -5.2675    0.0000 O   0  0
  -11.6938   -0.7682    0.0000 C   0  0
   -1.2990   -0.7500    0.0000 C   0  0
    0.0000   -1.5000    0.0000 C   0  0
   -0.0031   -3.0008    0.0000 O   0  0
   -1.3039   -3.7494    0.0000 C   0  0
   -2.6016   -2.9971    0.0000 C   0  0
   -1.3070   -5.2494    0.0000 O   0  0
  1  2  1  0
  2  3  2  0
  2  4  1  0
  4  5  1  0
  5  6  2  0
  6  7  1  0
  7  8  2  0
  8  9  1  0
  9 10  2  0
 10 11  1  0
 11 12  2  0
 11 13  1  0
 13 14  2  0
 14 15  1  0
 14 16  1  0
 16 17  2  0
 17 18  1  0
 18 19  2  0
 19 20  1  0
 20 21  2  0
 21 22  1  0
 22 23  1  0
 23 24  1  0
 23 25  2  0
 21 26  1  0
 26 27  1  0
 27 28  1  0
 28 29  1  0
 28 30  2  0
 26 31  2  0
 31 18  1  0
  8 32  1  0
 32 33  2  0
 33  5  1  0
 33 34  1  0
 34 35  1  0
 35 36  1  0
 35 37  2  0
M  END
> <assay_chembl_id>
CHEMBL953528

> <assay_description>
Antiproliferative activity against human LNCAP cells after 72 hrs by MTT assay

> <document_journal>
Bioorg Med Chem Lett

> <molecule_chembl_id>
CHEMBL494409

> <standard_value>
20200

> <IC50_uM>
20.2

> <Activity>
No

> <Canonical_Smiles>
CC(=O)Oc1ccc(/C=C/C(=O)/C=C(O)/C=C/c2ccc(OC(C)=O)c(OC(C)=O)c2)cc1OC(C)=O

$$$$

  SciTegic03142313312D

 31 32  0  0  0  0            999 V2000
    3.8983   -0.7459    0.0000 C   0  0
    2.6003   -1.4977    0.0000 O   0  0
    1.2990   -0.7500    0.0000 C   0  0
    1.2990    0.7500    0.0000 C   0  0
    0.0000    1.5000    0.0000 C   0  0
   -0.0031    3.0008    0.0000 C   0  0
   -1.3039    3.7494    0.0000 C   0  0
   -1.3070    5.2502    0.0000 C   0  0
   -0.0093    6.0025    0.0000 O   0  0
   -2.6078    5.9988    0.0000 C   0  0
   -2.6109    7.4996    0.0000 C   0  0
   -1.3132    8.2519    0.0000 O   0  0
   -3.9118    8.2481    0.0000 C   0  0
   -3.9149    9.7490    0.0000 C   0  0
   -5.2157   10.4975    0.0000 C   0  0
   -5.2210   11.9975    0.0000 C   0  0
   -6.5226   12.7430    0.0000 C   0  0
   -6.5247   14.2439    0.0000 O   0  0
   -5.2272   14.9965    0.0000 C   0  0
   -7.8190   11.9885    0.0000 C   0  0
   -9.1207   12.7340    0.0000 O   0  0
   -7.8138   10.4885    0.0000 C   0  0
   -9.1094    9.7310    0.0000 O   0  0
   -9.1021    8.2310    0.0000 C   0  0
   -6.5122    9.7430    0.0000 C   0  0
   -1.2990    0.7500    0.0000 C   0  0
   -1.2990   -0.7500    0.0000 C   0  0
   -2.6003   -1.4978    0.0000 O   0  0
   -3.8983   -0.7459    0.0000 C   0  0
    0.0000   -1.5000    0.0000 C   0  0
    0.0000   -3.0000    0.0000 O   0  0
  1  2  1  0
  2  3  1  0
  3  4  2  0
  4  5  1  0
  5  6  1  0
  6  7  2  0
  7  8  1  0
  8  9  2  0
  8 10  1  0
 10 11  2  0
 11 12  1  0
 11 13  1  0
 13 14  2  0
 14 15  1  0
 15 16  2  0
 16 17  1  0
 17 18  1  0
 18 19  1  0
 17 20  2  0
 20 21  1  0
 20 22  1  0
 22 23  1  0
 23 24  1  0
 22 25  2  0
 25 15  1  0
  5 26  2  0
 26 27  1  0
 27 28  1  0
 28 29  1  0
 27 30  2  0
 30  3  1  0
 30 31  1  0
M  END
> <assay_chembl_id>
CHEMBL953528

> <assay_description>
Antiproliferative activity against human LNCAP cells after 72 hrs by MTT assay

> <document_journal>
Bioorg Med Chem Lett

> <molecule_chembl_id>
CHEMBL209219

> <standard_value>
21100

> <IC50_uM>
21.1

> <Activity>
No

> <Canonical_Smiles>
COc1cc(/C=C/C(=O)/C=C(O)/C=C/c2cc(OC)c(O)c(OC)c2)cc(OC)c1O

$$$$

  SciTegic03142313312D

 25 26  0  0  0  0            999 V2000
    2.5951   -3.0031    0.0000 C   0  0
    2.5973   -1.5031    0.0000 O   0  0
    1.2990   -0.7500    0.0000 C   0  0
    1.2990    0.7500    0.0000 C   0  0
    0.0000    1.5000    0.0000 C   0  0
   -1.2990    0.7500    0.0000 C   0  0
   -1.2990   -0.7500    0.0000 C   0  0
   -2.5972   -1.5031    0.0000 C   0  0
   -2.5951   -3.0039    0.0000 C   0  0
   -3.8933   -3.7570    0.0000 C   0  0
   -5.1937   -3.0093    0.0000 O   0  0
   -3.8912   -5.2578    0.0000 C   0  0
   -5.1894   -6.0109    0.0000 C   0  0
   -6.4897   -5.2632    0.0000 O   0  0
   -5.1872   -7.5117    0.0000 C   0  0
   -6.4854   -8.2648    0.0000 C   0  0
   -6.4833   -9.7657    0.0000 C   0  0
   -7.7797  -10.5203    0.0000 C   0  0
   -7.7745  -12.0202    0.0000 C   0  0
   -6.4729  -12.7657    0.0000 C   0  0
   -5.1764  -12.0112    0.0000 C   0  0
   -3.8726  -12.7545    0.0000 O   0  0
   -2.5772  -11.9981    0.0000 C   0  0
   -5.1816  -10.5113    0.0000 C   0  0
    0.0000   -1.5000    0.0000 C   0  0
  1  2  1  0
  2  3  1  0
  3  4  2  0
  4  5  1  0
  5  6  2  0
  6  7  1  0
  7  8  1  0
  8  9  2  0
  9 10  1  0
 10 11  2  0
 10 12  1  0
 12 13  2  0
 13 14  1  0
 13 15  1  0
 15 16  2  0
 16 17  1  0
 17 18  2  0
 18 19  1  0
 19 20  2  0
 20 21  1  0
 21 22  1  0
 22 23  1  0
 21 24  2  0
 24 17  1  0
  7 25  2  0
 25  3  1  0
M  END
> <assay_chembl_id>
CHEMBL953528

> <assay_description>
Antiproliferative activity against human LNCAP cells after 72 hrs by MTT assay

> <document_journal>
Bioorg Med Chem Lett

> <molecule_chembl_id>
CHEMBL492977

> <standard_value>
34700

> <IC50_uM>
34.7

> <Activity>
No

> <Canonical_Smiles>
COc1cccc(/C=C/C(=O)/C=C(O)/C=C/c2cccc(OC)c2)c1

$$$$

  SciTegic03142313312D

 18 19  0  0  0  0            999 V2000
    3.8983   -0.7459    0.0000 C   0  0
    2.6003   -1.4977    0.0000 O   0  0
    1.2990   -0.7500    0.0000 C   0  0
    1.2990    0.7500    0.0000 C   0  0
    0.0000    1.5000    0.0000 C   0  0
    0.0031    3.0008    0.0000 O   0  0
    1.3032    3.7490    0.0000 C   0  0
   -1.2990    0.7500    0.0000 C   0  0
   -2.5981    1.5000    0.0000 N   0  0
   -3.8971    0.7500    0.0000 C   0  0
   -5.1962    1.5000    0.0000 O   0  0
   -3.8971   -0.7500    0.0000 C   0  0
   -2.5981   -1.5000    0.0000 C   0  0
   -2.5981   -3.0000    0.0000 C   0  0
   -1.2990   -0.7500    0.0000 C   0  0
    0.0000   -1.5000    0.0000 C   0  0
    0.0031   -3.0008    0.0000 O   0  0
    1.3032   -3.7490    0.0000 C   0  0
  1  2  1  0
  2  3  1  0
  3  4  2  0
  4  5  1  0
  5  6  1  0
  6  7  1  0
  5  8  2  0
  8  9  1  0
  9 10  1  0
 10 11  2  0
 10 12  1  0
 12 13  2  0
 13 14  1  0
 13 15  1  0
 15  8  1  0
 15 16  2  0
 16  3  1  0
 16 17  1  0
 17 18  1  0
M  END
> <assay_chembl_id>
CHEMBL960913

> <assay_description>
Cytotoxicity against human LNCAP cells after 72 hrs by sulforhodamine B assay

> <document_journal>
J Med Chem

> <molecule_chembl_id>
CHEMBL493181

> <standard_value>
45760

> <IC50_uM>
45.76

> <Activity>
No

> <Canonical_Smiles>
COc1cc(OC)c2[nH]c(=O)cc(C)c2c1OC

$$$$

  SciTegic03142313312D

 15 16  0  0  0  0            999 V2000
    2.5981   -1.5000    0.0000 C   0  0
    1.2990   -0.7500    0.0000 C   0  0
    1.2990    0.7500    0.0000 C   0  0
    0.0000    1.5000    0.0000 C   0  0
    0.0000    3.0000    0.0000 O   0  0
   -1.2990    0.7500    0.0000 N   0  0
   -2.5981    1.5000    0.0000 C   0  0
   -1.2990   -0.7500    0.0000 C   0  0
    0.0000   -1.5000    0.0000 C   0  0
    0.0000   -3.0000    0.0000 C   0  0
    1.2990   -3.7500    0.0000 O   0  0
   -1.2990   -3.7500    0.0000 C   0  0
   -2.5981   -3.0000    0.0000 C   0  0
   -2.5981   -1.5000    0.0000 C   0  0
   -3.8971   -0.7500    0.0000 O   0  0
  1  2  1  0
  2  3  2  0
  3  4  1  0
  4  5  2  0
  4  6  1  0
  6  7  1  0
  6  8  1  0
  8  9  2  0
  9  2  1  0
  9 10  1  0
 10 11  2  0
 10 12  1  0
 12 13  2  0
 13 14  1  0
 14  8  1  0
 14 15  2  0
M  END
> <assay_chembl_id>
CHEMBL960913

> <assay_description>
Cytotoxicity against human LNCAP cells after 72 hrs by sulforhodamine B assay

> <document_journal>
J Med Chem

> <molecule_chembl_id>
CHEMBL450666

> <standard_value>
58070

> <IC50_uM>
58.07

> <Activity>
No

> <Canonical_Smiles>
Cc1cc(=O)n(C)c2c1C(=O)C=CC2=O

$$$$

  SciTegic03142313312D

 21 22  0  0  0  0            999 V2000
    6.4926   -3.7549    0.0000 C   0  0
    5.1929   -3.0062    0.0000 C   0  0
    3.8933   -3.7570    0.0000 C   0  0  3  0  0  0
    2.5951   -3.0039    0.0000 C   0  0
    2.5973   -1.5031    0.0000 C   0  0
    3.8976   -0.7537    0.0000 C   0  0
    3.9019    0.7463    0.0000 C   0  0
    5.2031    1.4926    0.0000 C   0  0
    6.4999    0.7389    0.0000 C   0  0
    7.8011    1.4852    0.0000 O   0  0
    6.4957   -0.7611    0.0000 C   0  0
    5.1945   -1.5074    0.0000 C   0  0
    3.8912   -5.2578    0.0000 C   0  0
    5.1876   -6.0124    0.0000 C   0  0
    5.1824   -7.5124    0.0000 C   0  0
    3.8808   -8.2579    0.0000 C   0  0
    3.8756   -9.7579    0.0000 O   0  0
    2.5844   -7.5034    0.0000 C   0  0
    1.2805   -8.2466    0.0000 O   0  0
   -0.0149   -7.4903    0.0000 C   0  0
    2.5895   -6.0034    0.0000 C   0  0
  1  2  2  0
  3  2  1  4
  3  4  1  0
  4  5  2  0
  5  6  1  0
  6  7  2  0
  7  8  1  0
  8  9  2  0
  9 10  1  0
  9 11  1  0
 11 12  2  0
 12  6  1  0
  3 13  1  0
 13 14  2  0
 14 15  1  0
 15 16  2  0
 16 17  1  0
 16 18  1  0
 18 19  1  0
 19 20  1  0
 18 21  2  0
 21 13  1  0
M  END
> <assay_chembl_id>
CHEMBL1036066

> <assay_description>
Cytotoxicity against human LNCAP cells

> <document_journal>
J Nat Prod

> <molecule_chembl_id>
CHEMBL509757

> <standard_value>
23400

> <IC50_uM>
23.4

> <Activity>
No

> <Canonical_Smiles>
C=CC(/C=C\c1ccc(O)cc1)c1ccc(O)c(OC)c1

$$$$

  SciTegic03142313312D

 21 22  0  0  0  0            999 V2000
    6.4926   -3.7549    0.0000 C   0  0
    5.1929   -3.0062    0.0000 C   0  0
    3.8933   -3.7570    0.0000 C   0  0  3  0  0  0
    2.5951   -3.0039    0.0000 C   0  0
    2.5973   -1.5031    0.0000 C   0  0
    3.8976   -0.7537    0.0000 C   0  0
    3.9019    0.7463    0.0000 C   0  0
    5.2031    1.4926    0.0000 C   0  0
    6.4999    0.7389    0.0000 C   0  0
    7.8011    1.4852    0.0000 O   0  0
    6.4957   -0.7611    0.0000 C   0  0
    5.1945   -1.5074    0.0000 C   0  0
    3.8912   -5.2578    0.0000 C   0  0
    5.1876   -6.0124    0.0000 C   0  0
    5.1824   -7.5124    0.0000 C   0  0
    3.8808   -8.2579    0.0000 C   0  0
    3.8787   -9.7587    0.0000 O   0  0
    5.1762  -10.5114    0.0000 C   0  0
    2.5844   -7.5034    0.0000 C   0  0
    1.2827   -8.2489    0.0000 O   0  0
    2.5895   -6.0034    0.0000 C   0  0
  1  2  2  0
  3  2  1  4
  3  4  1  0
  4  5  2  0
  5  6  1  0
  6  7  2  0
  7  8  1  0
  8  9  2  0
  9 10  1  0
  9 11  1  0
 11 12  2  0
 12  6  1  0
  3 13  1  0
 13 14  2  0
 14 15  1  0
 15 16  2  0
 16 17  1  0
 17 18  1  0
 16 19  1  0
 19 20  1  0
 19 21  2  0
 21 13  1  0
M  END
> <assay_chembl_id>
CHEMBL1036066

> <assay_description>
Cytotoxicity against human LNCAP cells

> <document_journal>
J Nat Prod

> <molecule_chembl_id>
CHEMBL471603

> <standard_value>
41100

> <IC50_uM>
41.1

> <Activity>
No

> <Canonical_Smiles>
C=CC(/C=C\c1ccc(O)cc1)c1ccc(OC)c(O)c1

$$$$

  SciTegic03142313312D

 29 31  0  0  0  0            999 V2000
   -0.2237   -5.5078    0.0000 C   0  0
   -0.6890   -4.0818    0.0000 C   0  0
    0.3114   -2.9665    0.0000 N   0  0
    1.8032   -3.1233    0.0000 C   0  0
    2.5536   -4.4230    0.0000 C   0  0
    4.0417   -4.4398    0.0000 N   0  0
    4.4674   -5.8782    0.0000 O   0  0
    3.2310   -6.7275    0.0000 N   0  0
    2.0412   -5.8141    0.0000 C   0  0
    0.6003   -6.2309    0.0000 N   0  0
    2.4133   -1.7530    0.0000 N   0  0
    1.2990   -0.7500    0.0000 C   0  0
    1.2990    0.7500    0.0000 C   0  0
    2.5988    1.5004    0.0000 C   0  0
    3.8985    2.2508    0.0000 C   0  0
    5.1983    3.0013    0.0000 C   0  0
    5.1978    4.5013    0.0000 C   0  0
    6.4970    3.7519    0.0000 C   0  0
    6.4978    2.2521    0.0000 O   0  0
    0.0000    1.5000    0.0000 N   0  0
   -1.2990    0.7500    0.0000 C   0  0
   -1.2990   -0.7500    0.0000 C   0  0
   -2.6003   -1.4978    0.0000 O   0  0
   -3.8990   -0.7455    0.0000 C   0  0
   -5.2003   -1.4932    0.0000 C   0  0
   -6.4990   -0.7410    0.0000 C   0  0
   -7.8003   -1.4887    0.0000 C   0  0
   -9.0983   -0.7369    0.0000 N   0  0
    0.0000   -1.5000    0.0000 C   0  0
  1  2  1  0
  2  3  1  0
  3  4  1  0
  4  5  1  0
  5  6  2  0
  6  7  1  0
  7  8  1  0
  8  9  2  0
  9  5  1  0
  9 10  1  0
  4 11  2  0
 11 12  1  0
 12 13  2  0
 13 14  1  0
 14 15  3  0
 15 16  1  0
 16 17  1  0
 16 18  1  0
 16 19  1  0
 13 20  1  0
 20 21  2  0
 21 22  1  0
 22 23  1  0
 23 24  1  0
 24 25  1  0
 25 26  1  0
 26 27  1  0
 27 28  1  0
 22 29  2  0
 29 12  1  0
 29  3  1  0
M  END
> <assay_chembl_id>
CHEMBL1028100

> <assay_description>
Antiproliferative activity against human LNCaP cells

> <document_journal>
J Med Chem

> <molecule_chembl_id>
CHEMBL493269

> <standard_value>
990

> <IC50_uM>
0.99

> <Activity>
Yes

> <Canonical_Smiles>
CCn1c(-c2nonc2N)nc2c(C#CC(C)(C)O)ncc(OCCCCN)c21

$$$$

  SciTegic03142313312D

 38 41  0  0  0  0            999 V2000
   -0.2237   -5.5078    0.0000 C   0  0
   -0.6890   -4.0818    0.0000 C   0  0
    0.3114   -2.9665    0.0000 N   0  0
    1.8032   -3.1233    0.0000 C   0  0
    2.5536   -4.4230    0.0000 C   0  0
    4.0417   -4.4398    0.0000 N   0  0
    4.4674   -5.8782    0.0000 O   0  0
    3.2310   -6.7275    0.0000 N   0  0
    2.0412   -5.8141    0.0000 C   0  0
    0.6003   -6.2309    0.0000 N   0  0
    2.4133   -1.7530    0.0000 N   0  0
    1.2990   -0.7500    0.0000 C   0  0
    1.2990    0.7500    0.0000 C   0  0
    2.5988    1.5004    0.0000 C   0  0
    3.8985    2.2508    0.0000 C   0  0
    5.1983    3.0013    0.0000 C   0  0
    5.1978    4.5013    0.0000 C   0  0
    6.4970    3.7519    0.0000 C   0  0
    6.4978    2.2521    0.0000 O   0  0
    0.0000    1.5000    0.0000 N   0  0
   -1.2990    0.7500    0.0000 C   0  0
   -1.2990   -0.7500    0.0000 C   0  0
   -2.6003   -1.4978    0.0000 O   0  0
   -3.8990   -0.7455    0.0000 C   0  0
   -5.2003   -1.4932    0.0000 C   0  0
   -6.4990   -0.7410    0.0000 C   0  0
   -7.8003   -1.4887    0.0000 N   0  0
   -9.0990   -0.7365    0.0000 C   0  0
  -10.4003   -1.4842    0.0000 C   0  0
  -11.6989   -0.7319    0.0000 C   0  0
  -13.0006   -1.4774    0.0000 C   0  0
  -14.2971   -0.7229    0.0000 C   0  0
  -14.2919    0.7771    0.0000 C   0  0
  -15.5875    1.5347    0.0000 O   0  0
  -15.5802    3.0346    0.0000 C   0  0
  -12.9903    1.5226    0.0000 C   0  0
  -11.6938    0.7681    0.0000 C   0  0
    0.0000   -1.5000    0.0000 C   0  0
  1  2  1  0
  2  3  1  0
  3  4  1  0
  4  5  1  0
  5  6  2  0
  6  7  1  0
  7  8  1  0
  8  9  2  0
  9  5  1  0
  9 10  1  0
  4 11  2  0
 11 12  1  0
 12 13  2  0
 13 14  1  0
 14 15  3  0
 15 16  1  0
 16 17  1  0
 16 18  1  0
 16 19  1  0
 13 20  1  0
 20 21  2  0
 21 22  1  0
 22 23  1  0
 23 24  1  0
 24 25  1  0
 25 26  1  0
 26 27  1  0
 27 28  1  0
 28 29  1  0
 29 30  1  0
 30 31  2  0
 31 32  1  0
 32 33  2  0
 33 34  1  0
 34 35  1  0
 33 36  1  0
 36 37  2  0
 37 30  1  0
 22 38  2  0
 38 12  1  0
 38  3  1  0
M  END
> <assay_chembl_id>
CHEMBL1028100

> <assay_description>
Antiproliferative activity against human LNCaP cells

> <document_journal>
J Med Chem

> <molecule_chembl_id>
CHEMBL494060

> <standard_value>
50

> <IC50_uM>
0.05

> <Activity>
Yes

> <Canonical_Smiles>
CCn1c(-c2nonc2N)nc2c(C#CC(C)(C)O)ncc(OCCCNCCc3ccc(OC)cc3)c21

$$$$

  SciTegic03142313312D

 31 34  0  0  1  0            999 V2000
   -0.2237   -5.5078    0.0000 C   0  0
   -0.6890   -4.0818    0.0000 C   0  0
    0.3114   -2.9665    0.0000 N   0  0
    1.8032   -3.1233    0.0000 C   0  0
    2.5536   -4.4230    0.0000 C   0  0
    4.0417   -4.4398    0.0000 N   0  0
    4.4674   -5.8782    0.0000 O   0  0
    3.2310   -6.7275    0.0000 N   0  0
    2.0412   -5.8141    0.0000 C   0  0
    0.6003   -6.2309    0.0000 N   0  0
    2.4133   -1.7530    0.0000 N   0  0
    1.2990   -0.7500    0.0000 C   0  0
    1.2990    0.7500    0.0000 C   0  0
    2.5988    1.5004    0.0000 C   0  0
    3.8985    2.2508    0.0000 C   0  0
    5.1983    3.0013    0.0000 C   0  0
    5.1978    4.5013    0.0000 C   0  0
    6.4970    3.7519    0.0000 C   0  0
    6.4978    2.2521    0.0000 O   0  0
    0.0000    1.5000    0.0000 N   0  0
   -1.2990    0.7500    0.0000 C   0  0
   -1.2990   -0.7500    0.0000 C   0  0
   -2.6003   -1.4978    0.0000 O   0  0
   -3.8990   -0.7455    0.0000 C   0  0
   -5.2003   -1.4932    0.0000 C   0  0  2  0  0  0
   -6.4994   -0.7433    0.0000 C   0  0
   -7.7985   -1.4932    0.0000 C   0  0
   -7.7985   -2.9932    0.0000 C   0  0
   -6.4995   -3.7433    0.0000 N   0  0
   -5.2004   -2.9933    0.0000 C   0  0
    0.0000   -1.5000    0.0000 C   0  0
  1  2  1  0
  2  3  1  0
  3  4  1  0
  4  5  1  0
  5  6  2  0
  6  7  1  0
  7  8  1  0
  8  9  2  0
  9  5  1  0
  9 10  1  0
  4 11  2  0
 11 12  1  0
 12 13  2  0
 13 14  1  0
 14 15  3  0
 15 16  1  0
 16 17  1  0
 16 18  1  0
 16 19  1  0
 13 20  1  0
 20 21  2  0
 21 22  1  0
 22 23  1  0
 23 24  1  0
 25 24  1  1
 25 26  1  0
 26 27  1  0
 27 28  1  0
 28 29  1  0
 29 30  1  0
 30 25  1  0
 22 31  2  0
 31 12  1  0
 31  3  1  0
M  END
> <assay_chembl_id>
CHEMBL1028100

> <assay_description>
Antiproliferative activity against human LNCaP cells

> <document_journal>
J Med Chem

> <molecule_chembl_id>
CHEMBL521642

> <standard_value>
190

> <IC50_uM>
0.19

> <Activity>
Yes

> <Canonical_Smiles>
CCn1c(-c2nonc2N)nc2c(C#CC(C)(C)O)ncc(OC[C@@H]3CCCNC3)c21

$$$$

  SciTegic03142313312D

 31 34  0  0  1  0            999 V2000
   -0.2237   -5.5078    0.0000 C   0  0
   -0.6890   -4.0818    0.0000 C   0  0
    0.3114   -2.9665    0.0000 N   0  0
    1.8032   -3.1233    0.0000 C   0  0
    2.5536   -4.4230    0.0000 C   0  0
    4.0417   -4.4398    0.0000 N   0  0
    4.4674   -5.8782    0.0000 O   0  0
    3.2310   -6.7275    0.0000 N   0  0
    2.0412   -5.8141    0.0000 C   0  0
    0.6003   -6.2309    0.0000 N   0  0
    2.4133   -1.7530    0.0000 N   0  0
    1.2990   -0.7500    0.0000 C   0  0
    1.2990    0.7500    0.0000 C   0  0
    2.5988    1.5004    0.0000 C   0  0
    3.8985    2.2508    0.0000 C   0  0
    5.1983    3.0013    0.0000 C   0  0
    5.1978    4.5013    0.0000 C   0  0
    6.4970    3.7519    0.0000 C   0  0
    6.4978    2.2521    0.0000 O   0  0
    0.0000    1.5000    0.0000 N   0  0
   -1.2990    0.7500    0.0000 C   0  0
   -1.2990   -0.7500    0.0000 C   0  0
   -2.6003   -1.4978    0.0000 O   0  0
   -3.8990   -0.7455    0.0000 C   0  0
   -5.2003   -1.4932    0.0000 C   0  0  1  0  0  0
   -6.4994   -0.7433    0.0000 C   0  0
   -7.7985   -1.4932    0.0000 C   0  0
   -7.7985   -2.9932    0.0000 C   0  0
   -6.4995   -3.7433    0.0000 N   0  0
   -5.2004   -2.9933    0.0000 C   0  0
    0.0000   -1.5000    0.0000 C   0  0
  1  2  1  0
  2  3  1  0
  3  4  1  0
  4  5  1  0
  5  6  2  0
  6  7  1  0
  7  8  1  0
  8  9  2  0
  9  5  1  0
  9 10  1  0
  4 11  2  0
 11 12  1  0
 12 13  2  0
 13 14  1  0
 14 15  3  0
 15 16  1  0
 16 17  1  0
 16 18  1  0
 16 19  1  0
 13 20  1  0
 20 21  2  0
 21 22  1  0
 22 23  1  0
 23 24  1  0
 25 24  1  6
 25 26  1  0
 26 27  1  0
 27 28  1  0
 28 29  1  0
 29 30  1  0
 30 25  1  0
 22 31  2  0
 31 12  1  0
 31  3  1  0
M  END
> <assay_chembl_id>
CHEMBL1028100

> <assay_description>
Antiproliferative activity against human LNCaP cells

> <document_journal>
J Med Chem

> <molecule_chembl_id>
CHEMBL494089

> <standard_value>
20

> <IC50_uM>
0.02

> <Activity>
Yes

> <Canonical_Smiles>
CCn1c(-c2nonc2N)nc2c(C#CC(C)(C)O)ncc(OC[C@H]3CCCNC3)c21

$$$$

  SciTegic03142313312D

 30 33  0  0  0  0            999 V2000
   -0.2237   -5.5078    0.0000 C   0  0
   -0.6890   -4.0818    0.0000 C   0  0
    0.3114   -2.9665    0.0000 N   0  0
    1.8032   -3.1233    0.0000 C   0  0
    2.5536   -4.4230    0.0000 C   0  0
    4.0417   -4.4398    0.0000 N   0  0
    4.4674   -5.8782    0.0000 O   0  0
    3.2310   -6.7275    0.0000 N   0  0
    2.0412   -5.8141    0.0000 C   0  0
    0.6003   -6.2309    0.0000 N   0  0
    2.4133   -1.7530    0.0000 N   0  0
    1.2990   -0.7500    0.0000 C   0  0
    1.2990    0.7500    0.0000 C   0  0
    2.5988    1.5004    0.0000 C   0  0
    3.8985    2.2508    0.0000 C   0  0
    5.1983    3.0013    0.0000 C   0  0
    5.1978    4.5013    0.0000 C   0  0
    6.4970    3.7519    0.0000 C   0  0
    6.4978    2.2521    0.0000 O   0  0
    0.0000    1.5000    0.0000 N   0  0
   -1.2990    0.7500    0.0000 C   0  0
   -1.2990   -0.7500    0.0000 C   0  0
   -2.6003   -1.4978    0.0000 O   0  0
   -3.8990   -0.7455    0.0000 C   0  0
   -5.2007   -1.4909    0.0000 C   0  0
   -6.4972   -0.7365    0.0000 C   0  0
   -6.4920    0.7635    0.0000 N   0  0
   -5.1903    1.5090    0.0000 C   0  0
   -3.8939    0.7546    0.0000 C   0  0
    0.0000   -1.5000    0.0000 C   0  0
  1  2  1  0
  2  3  1  0
  3  4  1  0
  4  5  1  0
  5  6  2  0
  6  7  1  0
  7  8  1  0
  8  9  2  0
  9  5  1  0
  9 10  1  0
  4 11  2  0
 11 12  1  0
 12 13  2  0
 13 14  1  0
 14 15  3  0
 15 16  1  0
 16 17  1  0
 16 18  1  0
 16 19  1  0
 13 20  1  0
 20 21  2  0
 21 22  1  0
 22 23  1  0
 23 24  1  0
 24 25  1  0
 25 26  1  0
 26 27  1  0
 27 28  1  0
 28 29  1  0
 29 24  1  0
 22 30  2  0
 30 12  1  0
 30  3  1  0
M  END
> <assay_chembl_id>
CHEMBL1028100

> <assay_description>
Antiproliferative activity against human LNCaP cells

> <document_journal>
J Med Chem

> <molecule_chembl_id>
CHEMBL1794066

> <standard_value>
180

> <IC50_uM>
0.18

> <Activity>
Yes

> <RemovedSalts>
OC(=O)C(F)(F)F

> <Canonical_Smiles>
CCn1c(-c2nonc2N)nc2c(C#CC(C)(C)O)ncc(OC3CCNCC3)c21.O=C(O)C(F)(F)F

$$$$

  SciTegic03142313312D

 30 33  0  0  0  0            999 V2000
   -0.2237   -5.5078    0.0000 C   0  0
   -0.6890   -4.0818    0.0000 C   0  0
    0.3114   -2.9665    0.0000 N   0  0
    1.8032   -3.1233    0.0000 C   0  0
    2.5536   -4.4230    0.0000 C   0  0
    4.0417   -4.4398    0.0000 N   0  0
    4.4674   -5.8782    0.0000 O   0  0
    3.2310   -6.7275    0.0000 N   0  0
    2.0412   -5.8141    0.0000 C   0  0
    0.6003   -6.2309    0.0000 N   0  0
    2.4133   -1.7530    0.0000 N   0  0
    1.2990   -0.7500    0.0000 C   0  0
    1.2990    0.7500    0.0000 C   0  0
    2.5988    1.5004    0.0000 C   0  0
    3.8985    2.2508    0.0000 C   0  0
    5.1983    3.0013    0.0000 C   0  0
    5.1978    4.5013    0.0000 C   0  0
    6.4970    3.7519    0.0000 C   0  0
    6.4978    2.2521    0.0000 O   0  0
    0.0000    1.5000    0.0000 N   0  0
   -1.2990    0.7500    0.0000 C   0  0
   -1.2990   -0.7500    0.0000 C   0  0
   -2.6003   -1.4978    0.0000 O   0  0
   -3.8990   -0.7455    0.0000 C   0  0
   -5.2003   -1.4932    0.0000 C   0  0  3  0  0  0
   -6.5517   -0.8722    0.0000 C   0  0
   -7.5554   -1.9869    0.0000 C   0  0
   -6.8054   -3.2860    0.0000 N   0  0
   -5.3382   -2.9741    0.0000 C   0  0
    0.0000   -1.5000    0.0000 C   0  0
  1  2  1  0
  2  3  1  0
  3  4  1  0
  4  5  1  0
  5  6  2  0
  6  7  1  0
  7  8  1  0
  8  9  2  0
  9  5  1  0
  9 10  1  0
  4 11  2  0
 11 12  1  0
 12 13  2  0
 13 14  1  0
 14 15  3  0
 15 16  1  0
 16 17  1  0
 16 18  1  0
 16 19  1  0
 13 20  1  0
 20 21  2  0
 21 22  1  0
 22 23  1  0
 23 24  1  0
 25 24  1  4
 25 26  1  0
 26 27  1  0
 27 28  1  0
 28 29  1  0
 29 25  1  0
 22 30  2  0
 30 12  1  0
 30  3  1  0
M  END
> <assay_chembl_id>
CHEMBL1028100

> <assay_description>
Antiproliferative activity against human LNCaP cells

> <document_journal>
J Med Chem

> <molecule_chembl_id>
CHEMBL494088

> <standard_value>
460

> <IC50_uM>
0.46

> <Activity>
Yes

> <Canonical_Smiles>
CCn1c(-c2nonc2N)nc2c(C#CC(C)(C)O)ncc(OCC3CCNC3)c21

$$$$

  SciTegic03142313312D

 35 38  0  0  1  0            999 V2000
   -0.2237   -5.5078    0.0000 C   0  0
   -0.6890   -4.0818    0.0000 C   0  0
    0.3114   -2.9665    0.0000 N   0  0
    1.8032   -3.1233    0.0000 C   0  0
    2.5536   -4.4230    0.0000 C   0  0
    4.0417   -4.4398    0.0000 N   0  0
    4.4674   -5.8782    0.0000 O   0  0
    3.2310   -6.7275    0.0000 N   0  0
    2.0412   -5.8141    0.0000 C   0  0
    0.6003   -6.2309    0.0000 N   0  0
    2.4133   -1.7530    0.0000 N   0  0
    1.2990   -0.7500    0.0000 C   0  0
    1.2990    0.7500    0.0000 C   0  0
    2.5988    1.5004    0.0000 C   0  0
    3.8985    2.2508    0.0000 C   0  0
    5.1983    3.0013    0.0000 C   0  0
    5.1978    4.5013    0.0000 C   0  0
    6.4970    3.7519    0.0000 C   0  0
    6.4978    2.2521    0.0000 O   0  0
    0.0000    1.5000    0.0000 N   0  0
   -1.2990    0.7500    0.0000 C   0  0
   -1.2990   -0.7500    0.0000 C   0  0
   -2.6003   -1.4978    0.0000 O   0  0
   -3.8990   -0.7455    0.0000 C   0  0
   -5.2003   -1.4932    0.0000 C   0  0
   -6.4990   -0.7410    0.0000 C   0  0  1  0  0  0
   -6.4964    0.7590    0.0000 N   0  0
   -7.8003   -1.4887    0.0000 C   0  0
   -9.0990   -0.7365    0.0000 C   0  0
  -10.4007   -1.4819    0.0000 C   0  0
  -11.6971   -0.7274    0.0000 C   0  0
  -11.6919    0.7726    0.0000 C   0  0
  -10.3903    1.5181    0.0000 C   0  0
   -9.0939    0.7636    0.0000 C   0  0
    0.0000   -1.5000    0.0000 C   0  0
  1  2  1  0
  2  3  1  0
  3  4  1  0
  4  5  1  0
  5  6  2  0
  6  7  1  0
  7  8  1  0
  8  9  2  0
  9  5  1  0
  9 10  1  0
  4 11  2  0
 11 12  1  0
 12 13  2  0
 13 14  1  0
 14 15  3  0
 15 16  1  0
 16 17  1  0
 16 18  1  0
 16 19  1  0
 13 20  1  0
 20 21  2  0
 21 22  1  0
 22 23  1  0
 23 24  1  0
 24 25  1  0
 25 26  1  0
 26 27  1  6
 26 28  1  0
 28 29  1  0
 29 30  2  0
 30 31  1  0
 31 32  2  0
 32 33  1  0
 33 34  2  0
 34 29  1  0
 22 35  2  0
 35 12  1  0
 35  3  1  0
M  END
> <assay_chembl_id>
CHEMBL1028100

> <assay_description>
Antiproliferative activity against human LNCaP cells

> <document_journal>
J Med Chem

> <molecule_chembl_id>
CHEMBL523859

> <standard_value>
30

> <IC50_uM>
0.03

> <Activity>
Yes

> <Canonical_Smiles>
CCn1c(-c2nonc2N)nc2c(C#CC(C)(C)O)ncc(OCC[C@@H](N)Cc3ccccc3)c21

$$$$

  SciTegic03142313312D

 27 29  0  0  0  0            999 V2000
   -0.2237   -5.5078    0.0000 C   0  0
   -0.6890   -4.0818    0.0000 C   0  0
    0.3114   -2.9665    0.0000 N   0  0
    1.8032   -3.1233    0.0000 C   0  0
    2.5536   -4.4230    0.0000 C   0  0
    4.0417   -4.4398    0.0000 N   0  0
    4.4674   -5.8782    0.0000 O   0  0
    3.2310   -6.7275    0.0000 N   0  0
    2.0412   -5.8141    0.0000 C   0  0
    0.6003   -6.2309    0.0000 N   0  0
    2.4133   -1.7530    0.0000 N   0  0
    1.2990   -0.7500    0.0000 C   0  0
    1.2990    0.7500    0.0000 C   0  0
    2.5988    1.5004    0.0000 C   0  0
    3.8985    2.2508    0.0000 C   0  0
    5.1983    3.0013    0.0000 C   0  0
    5.1978    4.5013    0.0000 C   0  0
    6.4970    3.7519    0.0000 C   0  0
    6.4978    2.2521    0.0000 O   0  0
    0.0000    1.5000    0.0000 N   0  0
   -1.2990    0.7500    0.0000 C   0  0
   -1.2990   -0.7500    0.0000 C   0  0
   -2.6003   -1.4978    0.0000 O   0  0
   -3.8990   -0.7455    0.0000 C   0  0
   -5.2003   -1.4932    0.0000 C   0  0
   -6.4983   -0.7414    0.0000 N   0  0
    0.0000   -1.5000    0.0000 C   0  0
  1  2  1  0
  2  3  1  0
  3  4  1  0
  4  5  1  0
  5  6  2  0
  6  7  1  0
  7  8  1  0
  8  9  2  0
  9  5  1  0
  9 10  1  0
  4 11  2  0
 11 12  1  0
 12 13  2  0
 13 14  1  0
 14 15  3  0
 15 16  1  0
 16 17  1  0
 16 18  1  0
 16 19  1  0
 13 20  1  0
 20 21  2  0
 21 22  1  0
 22 23  1  0
 23 24  1  0
 24 25  1  0
 25 26  1  0
 22 27  2  0
 27 12  1  0
 27  3  1  0
M  END
> <assay_chembl_id>
CHEMBL1028100

> <assay_description>
Antiproliferative activity against human LNCaP cells

> <document_journal>
J Med Chem

> <molecule_chembl_id>
CHEMBL453510

> <standard_value>
300

> <IC50_uM>
0.3

> <Activity>
Yes

> <Canonical_Smiles>
CCn1c(-c2nonc2N)nc2c(C#CC(C)(C)O)ncc(OCCN)c21

$$$$

  SciTegic03142313312D

 31 34  0  0  0  0            999 V2000
   -0.2237   -5.5078    0.0000 C   0  0
   -0.6890   -4.0818    0.0000 C   0  0
    0.3114   -2.9665    0.0000 N   0  0
    1.8032   -3.1233    0.0000 C   0  0
    2.5536   -4.4230    0.0000 C   0  0
    4.0417   -4.4398    0.0000 N   0  0
    4.4674   -5.8782    0.0000 O   0  0
    3.2310   -6.7275    0.0000 N   0  0
    2.0412   -5.8141    0.0000 C   0  0
    0.6003   -6.2309    0.0000 N   0  0
    2.4133   -1.7530    0.0000 N   0  0
    1.2990   -0.7500    0.0000 C   0  0
    1.2990    0.7500    0.0000 C   0  0
    2.5988    1.5004    0.0000 C   0  0
    3.8985    2.2508    0.0000 C   0  0
    5.1983    3.0013    0.0000 C   0  0
    5.1978    4.5013    0.0000 C   0  0
    6.4970    3.7519    0.0000 C   0  0
    6.4978    2.2521    0.0000 O   0  0
    0.0000    1.5000    0.0000 N   0  0
   -1.2990    0.7500    0.0000 C   0  0
   -1.2990   -0.7500    0.0000 C   0  0
   -2.6003   -1.4978    0.0000 O   0  0
   -3.8990   -0.7455    0.0000 C   0  0
   -5.2003   -1.4932    0.0000 C   0  0
   -6.4994   -0.7433    0.0000 C   0  0
   -7.7985   -1.4932    0.0000 C   0  0
   -7.7985   -2.9932    0.0000 N   0  0
   -6.4995   -3.7433    0.0000 C   0  0
   -5.2004   -2.9933    0.0000 C   0  0
    0.0000   -1.5000    0.0000 C   0  0
  1  2  1  0
  2  3  1  0
  3  4  1  0
  4  5  1  0
  5  6  2  0
  6  7  1  0
  7  8  1  0
  8  9  2  0
  9  5  1  0
  9 10  1  0
  4 11  2  0
 11 12  1  0
 12 13  2  0
 13 14  1  0
 14 15  3  0
 15 16  1  0
 16 17  1  0
 16 18  1  0
 16 19  1  0
 13 20  1  0
 20 21  2  0
 21 22  1  0
 22 23  1  0
 23 24  1  0
 24 25  1  0
 25 26  1  0
 26 27  1  0
 27 28  1  0
 28 29  1  0
 29 30  1  0
 30 25  1  0
 22 31  2  0
 31 12  1  0
 31  3  1  0
M  END
> <assay_chembl_id>
CHEMBL1028100

> <assay_description>
Antiproliferative activity against human LNCaP cells

> <document_journal>
J Med Chem

> <molecule_chembl_id>
CHEMBL1794065

> <standard_value>
220

> <IC50_uM>
0.22

> <Activity>
Yes

> <RemovedSalts>
OC(=O)C(F)(F)F

> <Canonical_Smiles>
CCn1c(-c2nonc2N)nc2c(C#CC(C)(C)O)ncc(OCC3CCNCC3)c21.O=C(O)C(F)(F)F

$$$$

  SciTegic03142313312D

 36 41  0  0  1  0            999 V2000
    6.6164   -1.4976    0.0000 C   0  0
    5.1350   -1.2619    0.0000 C   0  0
    4.5972    0.1393    0.0000 C   0  0  2  0  0  0
    5.5459    1.3012    0.0000 C   0  0
    5.0140    2.7037    0.0000 C   0  0
    5.9627    3.8656    0.0000 C   0  0
    3.5334    2.9443    0.0000 C   0  0  1  0  0  0
    2.5792    1.7803    0.0000 C   0  0  2  0  0  0
    1.4564    2.7750    0.0000 C   0  0  2  0  0  0
    0.0000    3.1339    0.0000 O   0  0
   -1.4564    2.7750    0.0000 C   0  0
   -0.4314    0.9657    0.0000 C   0  0
   -0.9633   -0.4368    0.0000 C   0  0
   -2.9303   -1.1113    0.0000 C   0  0
   -3.1111    0.3777    0.0000 C   0  0
   -2.5792    1.7803    0.0000 C   0  0
   -2.0782   -2.3458    0.0000 C   0  0
   -0.7500   -3.0429    0.0000 C   0  0  1  0  0  0
   -1.4116   -1.6967    0.0000 O   0  0
    0.7500   -3.0429    0.0000 C   0  0
    2.0782   -2.3458    0.0000 C   0  0
    1.0092   -0.9605    0.0000 C   0  0
    1.5037    0.4556    0.0000 O   0  0
   -0.4472   -1.3195    0.0000 N   0  0
    2.9303   -1.1113    0.0000 C   0  0
    4.3328   -1.6432    0.0000 O   0  0
    3.1111    0.3778    0.0000 C   0  0  1  0  0  0
    1.6368    4.1543    0.0000 C   0  0  2  0  0  0
    0.8021    5.3916    0.0000 C   0  0  1  0  0  0
   -0.6939    5.2827    0.0000 C   0  0
    1.4520    6.7435    0.0000 C   0  0
    2.9477    6.8567    0.0000 C   0  0  1  0  0  0
    3.5976    8.2086    0.0000 C   0  0
    3.7936    5.6179    0.0000 C   0  0
    3.1319    4.2752    0.0000 C   0  0  1  0  0  0
    4.6268    4.1517    0.0000 C   0  0
  1  2  2  0
  3  2  1  1
  3  4  1  0
  4  5  2  0
  5  6  1  0
  7  5  1  1
  8  7  1  1
  8  9  1  0
  9 10  1  6
 10 11  1  0
 11 12  2  0
 12 13  1  0
 13 14  2  0
 14 15  1  0
 15 16  2  0
 16 11  1  0
 14 17  1  0
 17 18  1  0
 18 19  1  1
 18 20  1  0
 20 21  2  0
 21 22  1  0
 22 23  2  0
 22 24  1  0
 24 18  1  0
 21 25  1  0
 25 26  2  0
 27 25  1  6
 27  3  1  0
 27  8  1  0
 28  9  1  6
 28 29  1  0
 29 30  1  1
 29 31  1  0
 31 32  1  0
 32 33  1  1
 32 34  1  0
 34 35  1  0
 35 28  1  0
 35  7  1  0
 35 36  1  6
M  END
> <assay_chembl_id>
CHEMBL948462

> <assay_description>
Cytotoxicity against human LNCAP cells by MTT assay

> <document_journal>
Bioorg Med Chem Lett

> <molecule_chembl_id>
CHEMBL520703

> <standard_value>
480

> <IC50_uM>
0.48

> <Activity>
Yes

> <Canonical_Smiles>
C=C[C@@H]1C=C(C)[C@H]2[C@@H]3[C@H](Oc4ccc(cc4)C[C@@]4(O)C=C(C(=O)N4)C(=O)[C@@H]13)[C@@H]1[C@@H](C)C[C@@H](C)C[C@]12C

$$$$

  SciTegic03142313312D

 37 43  0  0  1  0            999 V2000
    7.0265    1.0605    0.0000 C   0  0
    5.5459    1.3012    0.0000 C   0  0
    5.0140    2.7037    0.0000 C   0  0
    3.5334    2.9443    0.0000 C   0  0  1  0  0  0
    2.5792    1.7803    0.0000 C   0  0  2  0  0  0
    1.4564    2.7750    0.0000 C   0  0
    2.1535    4.1032    0.0000 O   0  0
    0.0000    3.1339    0.0000 C   0  0  2  0  0  0
    1.3374    4.6712    0.0000 C   0  0
    2.8301    4.5238    0.0000 C   0  0  2  0  0  0
    3.7080    5.7401    0.0000 O   0  0
   -1.4564    2.7750    0.0000 C   0  0
   -2.5792    1.7803    0.0000 C   0  0  2  0  0  0
   -2.1817    0.3339    0.0000 O   0  0
   -3.1111    0.3777    0.0000 C   0  0
   -2.9303   -1.1113    0.0000 C   0  0
   -1.0107   -0.3118    0.0000 C   0  0
    0.3175   -1.0089    0.0000 C   0  0
    0.7500   -3.0429    0.0000 C   0  0
   -0.7500   -3.0429    0.0000 C   0  0
   -2.0782   -2.3458    0.0000 C   0  0
    2.0782   -2.3458    0.0000 O   0  0
    2.9303   -1.1113    0.0000 C   0  0  1  0  0  0
    3.1111    0.3778    0.0000 C   0  0  1  0  0  0
    4.5972    0.1393    0.0000 C   0  0  2  0  0  0
    5.1793   -1.1231    0.0000 C   0  0  2  0  0  0
    6.2163   -0.0394    0.0000 C   0  0
    6.5649   -1.6894    0.0000 C   0  0
    6.7532   -3.1776    0.0000 C   0  0  2  0  0  0
    8.1362   -3.7585    0.0000 C   0  0
    5.5586   -4.0847    0.0000 C   0  0
    4.1757   -3.5038    0.0000 C   0  0  2  0  0  0
    2.9837   -4.4143    0.0000 C   0  0
    3.9800   -2.0241    0.0000 C   0  0  1  0  0  0
   -1.2097    0.6911    0.0000 N   0  0
    0.1184    1.3882    0.0000 C   0  0
    1.4277    0.6561    0.0000 O   0  0
  1  2  1  0
  2  3  2  0
  4  3  1  1
  4  5  1  0
  5  6  1  1
  6  7  2  0
  6  8  1  0
  8  9  1  6
  9 10  1  0
 10  4  1  0
 10 11  1  6
  8 12  1  0
 12 13  1  0
 13 14  1  6
 13 15  1  0
 15 16  1  0
 16 17  2  0
 17 18  1  0
 18 19  2  0
 19 20  1  0
 20 21  2  0
 21 16  1  0
 19 22  1  0
 23 22  1  1
 24 23  1  6
 24  5  1  0
 24 25  1  0
 25  2  1  1
 25 26  1  0
 26 27  1  1
 26 28  1  0
 28 29  1  0
 29 30  1  6
 29 31  1  0
 31 32  1  0
 32 33  1  6
 34 32  1  1
 34 23  1  0
 34 26  1  0
 13 35  1  0
 35 36  1  0
 36  8  1  0
 36 37  2  0
M  END
> <assay_chembl_id>
CHEMBL948462

> <assay_description>
Cytotoxicity against human LNCAP cells by MTT assay

> <document_journal>
Bioorg Med Chem Lett

> <molecule_chembl_id>
CHEMBL502235

> <standard_value>
20240

> <IC50_uM>
20.24

> <Activity>
No

> <Canonical_Smiles>
CC1=C[C@H]2[C@@H]3C(=O)[C@]4(C[C@@H]2O)C[C@](O)(Cc2ccc(cc2)O[C@H]2[C@H]3[C@@H]1[C@]1(C)C[C@H](C)C[C@H](C)[C@@H]21)NC4=O

$$$$

  SciTegic03142313312D

 27 30  0  0  0  0            999 V2000
    6.9014   -6.1984    0.0000 N   0  0
    6.0174   -7.4102    0.0000 C   0  0
    4.5250   -7.2514    0.0000 C   0  0  3  0  0  0
    3.9195   -5.8781    0.0000 N   0  0
    4.8054   -4.6666    0.0000 C   0  0
    6.2966   -4.8284    0.0000 O   0  0
    4.2010   -3.2956    0.0000 C   0  0
    4.9531   -1.9978    0.0000 C   0  0
    3.9511   -0.8815    0.0000 C   0  0
    4.2566    0.5871    0.0000 Br  0  0
    2.5987   -1.5004    0.0000 C   0  0
    1.2990   -0.7500    0.0000 C   0  0
    1.2990    0.7500    0.0000 C   0  0
    0.0000    1.5000    0.0000 C   0  0
   -1.2990    0.7500    0.0000 N   0  0
   -1.2990   -0.7500    0.0000 C   0  0
   -2.4133   -1.7530    0.0000 N   0  0
   -1.8032   -3.1233    0.0000 C   0  0
   -0.3114   -2.9665    0.0000 C   0  0
    0.0000   -1.5000    0.0000 C   0  0
    2.7343   -2.9815    0.0000 S   0  0
    3.6391   -8.4629    0.0000 C   0  0
    4.2422   -9.8364    0.0000 C   0  0
    3.3544  -11.0454    0.0000 C   0  0
    1.8634  -10.8811    0.0000 C   0  0
    1.2603   -9.5077    0.0000 C   0  0
    2.1481   -8.2986    0.0000 C   0  0
  1  2  1  0
  3  2  1  4
  3  4  1  0
  4  5  1  0
  5  6  2  0
  5  7  1  0
  7  8  2  0
  8  9  1  0
  9 10  1  0
  9 11  2  0
 11 12  1  0
 12 13  2  0
 13 14  1  0
 14 15  2  0
 15 16  1  0
 16 17  1  0
 17 18  1  0
 18 19  2  0
 19 20  1  0
 20 12  1  0
 20 16  2  0
 11 21  1  0
 21  7  1  0
  3 22  1  0
 22 23  2  0
 23 24  1  0
 24 25  2  0
 25 26  1  0
 26 27  2  0
 27 22  1  0
M  END
> <assay_chembl_id>
CHEMBL959248

> <assay_description>
Cytotoxicity against human LNCAP cells

> <document_journal>
Bioorg Med Chem Lett

> <molecule_chembl_id>
CHEMBL512135

> <standard_value>
750

> <IC50_uM>
0.75

> <Activity>
Yes

> <Canonical_Smiles>
NCC(NC(=O)c1cc(Br)c(-c2ccnc3[nH]ccc23)s1)c1ccccc1

$$$$

  SciTegic03142313312D

 28 31  0  0  0  0            999 V2000
    6.9014   -6.1984    0.0000 N   0  0
    6.0174   -7.4102    0.0000 C   0  0
    4.5250   -7.2514    0.0000 C   0  0  3  0  0  0
    3.6391   -8.4629    0.0000 C   0  0
    4.2445   -9.8362    0.0000 C   0  0
    3.3609  -11.0484    0.0000 C   0  0
    3.9688  -12.4197    0.0000 C   0  0
    5.4604  -12.5789    0.0000 C   0  0
    6.3440  -11.3668    0.0000 C   0  0
    5.7361   -9.9955    0.0000 C   0  0
    3.9195   -5.8781    0.0000 N   0  0
    4.8054   -4.6666    0.0000 C   0  0
    6.2966   -4.8284    0.0000 O   0  0
    4.2010   -3.2956    0.0000 C   0  0
    4.9531   -1.9978    0.0000 C   0  0
    3.9511   -0.8815    0.0000 C   0  0
    4.2566    0.5871    0.0000 Br  0  0
    2.5987   -1.5004    0.0000 C   0  0
    1.2990   -0.7500    0.0000 C   0  0
    1.2990    0.7500    0.0000 C   0  0
    0.0000    1.5000    0.0000 C   0  0
   -1.2990    0.7500    0.0000 N   0  0
   -1.2990   -0.7500    0.0000 C   0  0
   -2.4133   -1.7530    0.0000 N   0  0
   -1.8032   -3.1233    0.0000 C   0  0
   -0.3114   -2.9665    0.0000 C   0  0
    0.0000   -1.5000    0.0000 C   0  0
    2.7343   -2.9815    0.0000 S   0  0
  1  2  1  0
  3  2  1  4
  3  4  1  0
  4  5  1  0
  5  6  2  0
  6  7  1  0
  7  8  2  0
  8  9  1  0
  9 10  2  0
 10  5  1  0
  3 11  1  0
 11 12  1  0
 12 13  2  0
 12 14  1  0
 14 15  2  0
 15 16  1  0
 16 17  1  0
 16 18  2  0
 18 19  1  0
 19 20  2  0
 20 21  1  0
 21 22  2  0
 22 23  1  0
 23 24  1  0
 24 25  1  0
 25 26  2  0
 26 27  1  0
 27 19  1  0
 27 23  2  0
 18 28  1  0
 28 14  1  0
M  END
> <assay_chembl_id>
CHEMBL959248

> <assay_description>
Cytotoxicity against human LNCAP cells

> <document_journal>
Bioorg Med Chem Lett

> <molecule_chembl_id>
CHEMBL469590

> <standard_value>
45

> <IC50_uM>
0.045

> <Activity>
Yes

> <Canonical_Smiles>
NCC(Cc1ccccc1)NC(=O)c1cc(Br)c(-c2ccnc3[nH]ccc23)s1

$$$$

  SciTegic03142313312D

 28 31  0  0  1  0            999 V2000
    6.9014   -6.1984    0.0000 N   0  0
    6.0174   -7.4102    0.0000 C   0  0
    4.5250   -7.2514    0.0000 C   0  0  2  0  0  0
    3.6391   -8.4629    0.0000 C   0  0
    4.2445   -9.8362    0.0000 C   0  0
    3.3609  -11.0484    0.0000 C   0  0
    3.9688  -12.4197    0.0000 C   0  0
    5.4604  -12.5789    0.0000 C   0  0
    6.3440  -11.3668    0.0000 C   0  0
    5.7361   -9.9955    0.0000 C   0  0
    3.9195   -5.8781    0.0000 N   0  0
    4.8054   -4.6666    0.0000 C   0  0
    6.2966   -4.8284    0.0000 O   0  0
    4.2010   -3.2956    0.0000 C   0  0
    4.9531   -1.9978    0.0000 C   0  0
    3.9511   -0.8815    0.0000 C   0  0
    4.2566    0.5871    0.0000 Br  0  0
    2.5987   -1.5004    0.0000 C   0  0
    1.2990   -0.7500    0.0000 C   0  0
    1.2990    0.7500    0.0000 C   0  0
    0.0000    1.5000    0.0000 C   0  0
   -1.2990    0.7500    0.0000 N   0  0
   -1.2990   -0.7500    0.0000 C   0  0
   -2.4133   -1.7530    0.0000 N   0  0
   -1.8032   -3.1233    0.0000 C   0  0
   -0.3114   -2.9665    0.0000 C   0  0
    0.0000   -1.5000    0.0000 C   0  0
    2.7343   -2.9815    0.0000 S   0  0
  1  2  1  0
  3  2  1  6
  3  4  1  0
  4  5  1  0
  5  6  2  0
  6  7  1  0
  7  8  2  0
  8  9  1  0
  9 10  2  0
 10  5  1  0
  3 11  1  0
 11 12  1  0
 12 13  2  0
 12 14  1  0
 14 15  2  0
 15 16  1  0
 16 17  1  0
 16 18  2  0
 18 19  1  0
 19 20  2  0
 20 21  1  0
 21 22  2  0
 22 23  1  0
 23 24  1  0
 24 25  1  0
 25 26  2  0
 26 27  1  0
 27 19  1  0
 27 23  2  0
 18 28  1  0
 28 14  1  0
M  END
> <assay_chembl_id>
CHEMBL959248

> <assay_description>
Cytotoxicity against human LNCAP cells

> <document_journal>
Bioorg Med Chem Lett

> <molecule_chembl_id>
CHEMBL470597

> <standard_value>
21

> <IC50_uM>
0.021

> <Activity>
Yes

> <Canonical_Smiles>
NC[C@H](Cc1ccccc1)NC(=O)c1cc(Br)c(-c2ccnc3[nH]ccc23)s1

$$$$

  SciTegic03142313312D

 28 31  0  0  1  0            999 V2000
    6.9014   -6.1984    0.0000 N   0  0
    6.0174   -7.4102    0.0000 C   0  0
    4.5250   -7.2514    0.0000 C   0  0  2  0  0  0
    3.6391   -8.4629    0.0000 C   0  0
    4.2445   -9.8362    0.0000 C   0  0
    3.3609  -11.0484    0.0000 C   0  0
    3.9688  -12.4197    0.0000 C   0  0
    5.4604  -12.5789    0.0000 C   0  0
    6.3440  -11.3668    0.0000 C   0  0
    5.7361   -9.9955    0.0000 C   0  0
    3.9195   -5.8781    0.0000 N   0  0
    4.8054   -4.6666    0.0000 C   0  0
    6.2966   -4.8284    0.0000 O   0  0
    4.2010   -3.2956    0.0000 C   0  0
    4.9531   -1.9978    0.0000 C   0  0
    3.9511   -0.8815    0.0000 C   0  0
    4.2566    0.5871    0.0000 Br  0  0
    2.5987   -1.5004    0.0000 C   0  0
    1.2990   -0.7500    0.0000 C   0  0
    1.2990    0.7500    0.0000 C   0  0
    0.0000    1.5000    0.0000 C   0  0
   -1.2990    0.7500    0.0000 N   0  0
   -1.2990   -0.7500    0.0000 C   0  0
   -2.4133   -1.7530    0.0000 N   0  0
   -1.8032   -3.1233    0.0000 C   0  0
   -0.3114   -2.9665    0.0000 C   0  0
    0.0000   -1.5000    0.0000 C   0  0
    2.7343   -2.9815    0.0000 S   0  0
  1  2  1  0
  3  2  1  6
  3  4  1  0
  4  5  1  0
  5  6  1  0
  6  7  1  0
  7  8  1  0
  8  9  1  0
  9 10  1  0
 10  5  1  0
  3 11  1  0
 11 12  1  0
 12 13  2  0
 12 14  1  0
 14 15  2  0
 15 16  1  0
 16 17  1  0
 16 18  2  0
 18 19  1  0
 19 20  2  0
 20 21  1  0
 21 22  2  0
 22 23  1  0
 23 24  1  0
 24 25  1  0
 25 26  2  0
 26 27  1  0
 27 19  1  0
 27 23  2  0
 18 28  1  0
 28 14  1  0
M  END
> <assay_chembl_id>
CHEMBL959248

> <assay_description>
Cytotoxicity against human LNCAP cells

> <document_journal>
Bioorg Med Chem Lett

> <molecule_chembl_id>
CHEMBL470598

> <standard_value>
440

> <IC50_uM>
0.44

> <Activity>
Yes

> <Canonical_Smiles>
NC[C@H](CC1CCCCC1)NC(=O)c1cc(Br)c(-c2ccnc3[nH]ccc23)s1

$$$$

  SciTegic03142313312D

 28 31  0  0  1  0            999 V2000
    6.9014   -6.1984    0.0000 N   0  0
    6.0174   -7.4102    0.0000 C   0  0
    4.5250   -7.2514    0.0000 C   0  0  2  0  0  0
    3.6391   -8.4629    0.0000 C   0  0
    4.2445   -9.8362    0.0000 C   0  0
    3.3609  -11.0484    0.0000 C   0  0
    3.9688  -12.4197    0.0000 C   0  0
    5.4604  -12.5789    0.0000 N   0  0
    6.3440  -11.3668    0.0000 C   0  0
    5.7361   -9.9955    0.0000 C   0  0
    3.9195   -5.8781    0.0000 N   0  0
    4.8054   -4.6666    0.0000 C   0  0
    6.2966   -4.8284    0.0000 O   0  0
    4.2010   -3.2956    0.0000 C   0  0
    4.9531   -1.9978    0.0000 C   0  0
    3.9511   -0.8815    0.0000 C   0  0
    4.2566    0.5871    0.0000 Br  0  0
    2.5987   -1.5004    0.0000 C   0  0
    1.2990   -0.7500    0.0000 C   0  0
    1.2990    0.7500    0.0000 C   0  0
    0.0000    1.5000    0.0000 C   0  0
   -1.2990    0.7500    0.0000 N   0  0
   -1.2990   -0.7500    0.0000 C   0  0
   -2.4133   -1.7530    0.0000 N   0  0
   -1.8032   -3.1233    0.0000 C   0  0
   -0.3114   -2.9665    0.0000 C   0  0
    0.0000   -1.5000    0.0000 C   0  0
    2.7343   -2.9815    0.0000 S   0  0
  1  2  1  0
  3  2  1  6
  3  4  1  0
  4  5  1  0
  5  6  2  0
  6  7  1  0
  7  8  2  0
  8  9  1  0
  9 10  2  0
 10  5  1  0
  3 11  1  0
 11 12  1  0
 12 13  2  0
 12 14  1  0
 14 15  2  0
 15 16  1  0
 16 17  1  0
 16 18  2  0
 18 19  1  0
 19 20  2  0
 20 21  1  0
 21 22  2  0
 22 23  1  0
 23 24  1  0
 24 25  1  0
 25 26  2  0
 26 27  1  0
 27 19  1  0
 27 23  2  0
 18 28  1  0
 28 14  1  0
M  END
> <assay_chembl_id>
CHEMBL959248

> <assay_description>
Cytotoxicity against human LNCAP cells

> <document_journal>
Bioorg Med Chem Lett

> <molecule_chembl_id>
CHEMBL498051

> <standard_value>
750

> <IC50_uM>
0.75

> <Activity>
Yes

> <Canonical_Smiles>
NC[C@H](Cc1ccncc1)NC(=O)c1cc(Br)c(-c2ccnc3[nH]ccc23)s1

$$$$

  SciTegic03142313312D

 30 33  0  0  1  0            999 V2000
    7.5631  -14.1068    0.0000 C   0  0
    6.0714  -13.9497    0.0000 O   0  0
    5.4604  -12.5789    0.0000 C   0  0
    3.9688  -12.4197    0.0000 C   0  0
    3.3609  -11.0484    0.0000 C   0  0
    4.2445   -9.8362    0.0000 C   0  0
    3.6391   -8.4629    0.0000 C   0  0
    4.5250   -7.2514    0.0000 C   0  0  1  0  0  0
    6.0174   -7.4102    0.0000 C   0  0
    6.9014   -6.1984    0.0000 N   0  0
    3.9195   -5.8781    0.0000 N   0  0
    4.8054   -4.6666    0.0000 C   0  0
    6.2966   -4.8284    0.0000 O   0  0
    4.2010   -3.2956    0.0000 C   0  0
    4.9531   -1.9978    0.0000 C   0  0
    3.9511   -0.8815    0.0000 C   0  0
    4.2566    0.5871    0.0000 Br  0  0
    2.5987   -1.5004    0.0000 C   0  0
    1.2990   -0.7500    0.0000 C   0  0
    1.2990    0.7500    0.0000 C   0  0
    0.0000    1.5000    0.0000 C   0  0
   -1.2990    0.7500    0.0000 N   0  0
   -1.2990   -0.7500    0.0000 C   0  0
   -2.4133   -1.7530    0.0000 N   0  0
   -1.8032   -3.1233    0.0000 C   0  0
   -0.3114   -2.9665    0.0000 C   0  0
    0.0000   -1.5000    0.0000 C   0  0
    2.7343   -2.9815    0.0000 S   0  0
    5.7361   -9.9955    0.0000 C   0  0
    6.3440  -11.3668    0.0000 C   0  0
  1  2  1  0
  2  3  1  0
  3  4  2  0
  4  5  1  0
  5  6  2  0
  6  7  1  0
  8  7  1  6
  8  9  1  0
  9 10  1  0
  8 11  1  0
 11 12  1  0
 12 13  2  0
 12 14  1  0
 14 15  2  0
 15 16  1  0
 16 17  1  0
 16 18  2  0
 18 19  1  0
 19 20  2  0
 20 21  1  0
 21 22  2  0
 22 23  1  0
 23 24  1  0
 24 25  1  0
 25 26  2  0
 26 27  1  0
 27 19  1  0
 27 23  2  0
 18 28  1  0
 28 14  1  0
  6 29  1  0
 29 30  2  0
 30  3  1  0
M  END
> <assay_chembl_id>
CHEMBL959248

> <assay_description>
Cytotoxicity against human LNCAP cells

> <document_journal>
Bioorg Med Chem Lett

> <molecule_chembl_id>
CHEMBL524998

> <standard_value>
720

> <IC50_uM>
0.72

> <Activity>
Yes

> <Canonical_Smiles>
COc1ccc(C[C@@H](CN)NC(=O)c2cc(Br)c(-c3ccnc4[nH]ccc34)s2)cc1

$$$$

  SciTegic03142313312D

 29 32  0  0  1  0            999 V2000
    6.9014   -6.1984    0.0000 N   0  0
    6.0174   -7.4102    0.0000 C   0  0
    4.5250   -7.2514    0.0000 C   0  0  2  0  0  0
    3.6391   -8.4629    0.0000 C   0  0
    4.2445   -9.8362    0.0000 C   0  0
    5.7361   -9.9955    0.0000 C   0  0
    6.3440  -11.3668    0.0000 C   0  0
    5.4603  -12.5789    0.0000 C   0  0
    3.9688  -12.4197    0.0000 C   0  0
    3.3609  -11.0484    0.0000 C   0  0
    1.8694  -10.8892    0.0000 F   0  0
    3.9195   -5.8781    0.0000 N   0  0
    4.8054   -4.6666    0.0000 C   0  0
    6.2966   -4.8284    0.0000 O   0  0
    4.2010   -3.2956    0.0000 C   0  0
    4.9531   -1.9978    0.0000 C   0  0
    3.9511   -0.8815    0.0000 C   0  0
    4.2566    0.5871    0.0000 Br  0  0
    2.5987   -1.5004    0.0000 C   0  0
    1.2990   -0.7500    0.0000 C   0  0
    1.2990    0.7500    0.0000 C   0  0
    0.0000    1.5000    0.0000 C   0  0
   -1.2990    0.7500    0.0000 N   0  0
   -1.2990   -0.7500    0.0000 C   0  0
   -2.4133   -1.7530    0.0000 N   0  0
   -1.8032   -3.1233    0.0000 C   0  0
   -0.3114   -2.9665    0.0000 C   0  0
    0.0000   -1.5000    0.0000 C   0  0
    2.7343   -2.9815    0.0000 S   0  0
  1  2  1  0
  3  2  1  6
  3  4  1  0
  4  5  1  0
  5  6  2  0
  6  7  1  0
  7  8  2  0
  8  9  1  0
  9 10  2  0
 10  5  1  0
 10 11  1  0
  3 12  1  0
 12 13  1  0
 13 14  2  0
 13 15  1  0
 15 16  2  0
 16 17  1  0
 17 18  1  0
 17 19  2  0
 19 20  1  0
 20 21  2  0
 21 22  1  0
 22 23  2  0
 23 24  1  0
 24 25  1  0
 25 26  1  0
 26 27  2  0
 27 28  1  0
 28 20  1  0
 28 24  2  0
 19 29  1  0
 29 15  1  0
M  END
> <assay_chembl_id>
CHEMBL959248

> <assay_description>
Cytotoxicity against human LNCAP cells

> <document_journal>
Bioorg Med Chem Lett

> <molecule_chembl_id>
CHEMBL498052

> <standard_value>
39

> <IC50_uM>
0.039

> <Activity>
Yes

> <Canonical_Smiles>
NC[C@H](Cc1ccccc1F)NC(=O)c1cc(Br)c(-c2ccnc3[nH]ccc23)s1

$$$$

  SciTegic03142313312D

 29 32  0  0  1  0            999 V2000
    6.9014   -6.1984    0.0000 N   0  0
    6.0174   -7.4102    0.0000 C   0  0
    4.5250   -7.2514    0.0000 C   0  0  2  0  0  0
    3.6391   -8.4629    0.0000 C   0  0
    4.2445   -9.8362    0.0000 C   0  0
    3.3609  -11.0484    0.0000 C   0  0
    3.9688  -12.4197    0.0000 C   0  0
    5.4604  -12.5789    0.0000 C   0  0
    6.3440  -11.3668    0.0000 C   0  0
    7.8355  -11.5260    0.0000 F   0  0
    5.7361   -9.9955    0.0000 C   0  0
    3.9195   -5.8781    0.0000 N   0  0
    4.8054   -4.6666    0.0000 C   0  0
    6.2966   -4.8284    0.0000 O   0  0
    4.2010   -3.2956    0.0000 C   0  0
    4.9531   -1.9978    0.0000 C   0  0
    3.9511   -0.8815    0.0000 C   0  0
    4.2566    0.5871    0.0000 Br  0  0
    2.5987   -1.5004    0.0000 C   0  0
    1.2990   -0.7500    0.0000 C   0  0
    1.2990    0.7500    0.0000 C   0  0
    0.0000    1.5000    0.0000 C   0  0
   -1.2990    0.7500    0.0000 N   0  0
   -1.2990   -0.7500    0.0000 C   0  0
   -2.4133   -1.7530    0.0000 N   0  0
   -1.8032   -3.1233    0.0000 C   0  0
   -0.3114   -2.9665    0.0000 C   0  0
    0.0000   -1.5000    0.0000 C   0  0
    2.7343   -2.9815    0.0000 S   0  0
  1  2  1  0
  3  2  1  6
  3  4  1  0
  4  5  1  0
  5  6  2  0
  6  7  1  0
  7  8  2  0
  8  9  1  0
  9 10  1  0
  9 11  2  0
 11  5  1  0
  3 12  1  0
 12 13  1  0
 13 14  2  0
 13 15  1  0
 15 16  2  0
 16 17  1  0
 17 18  1  0
 17 19  2  0
 19 20  1  0
 20 21  2  0
 21 22  1  0
 22 23  2  0
 23 24  1  0
 24 25  1  0
 25 26  1  0
 26 27  2  0
 27 28  1  0
 28 20  1  0
 28 24  2  0
 19 29  1  0
 29 15  1  0
M  END
> <assay_chembl_id>
CHEMBL959248

> <assay_description>
Cytotoxicity against human LNCAP cells

> <document_journal>
Bioorg Med Chem Lett

> <molecule_chembl_id>
CHEMBL523586

> <standard_value>
18

> <IC50_uM>
0.018

> <Activity>
Yes

> <Canonical_Smiles>
NC[C@H](Cc1cccc(F)c1)NC(=O)c1cc(Br)c(-c2ccnc3[nH]ccc23)s1

$$$$

  SciTegic03142313312D

 29 32  0  0  1  0            999 V2000
    6.9014   -6.1984    0.0000 N   0  0
    6.0174   -7.4102    0.0000 C   0  0
    4.5250   -7.2514    0.0000 C   0  0  2  0  0  0
    3.6391   -8.4629    0.0000 C   0  0
    4.2445   -9.8362    0.0000 C   0  0
    3.3609  -11.0484    0.0000 C   0  0
    3.9688  -12.4197    0.0000 C   0  0
    5.4604  -12.5789    0.0000 C   0  0
    6.0682  -13.9502    0.0000 F   0  0
    6.3440  -11.3668    0.0000 C   0  0
    5.7361   -9.9955    0.0000 C   0  0
    3.9195   -5.8781    0.0000 N   0  0
    4.8054   -4.6666    0.0000 C   0  0
    6.2966   -4.8284    0.0000 O   0  0
    4.2010   -3.2956    0.0000 C   0  0
    4.9531   -1.9978    0.0000 C   0  0
    3.9511   -0.8815    0.0000 C   0  0
    4.2566    0.5871    0.0000 Br  0  0
    2.5987   -1.5004    0.0000 C   0  0
    1.2990   -0.7500    0.0000 C   0  0
    1.2990    0.7500    0.0000 C   0  0
    0.0000    1.5000    0.0000 C   0  0
   -1.2990    0.7500    0.0000 N   0  0
   -1.2990   -0.7500    0.0000 C   0  0
   -2.4133   -1.7530    0.0000 N   0  0
   -1.8032   -3.1233    0.0000 C   0  0
   -0.3114   -2.9665    0.0000 C   0  0
    0.0000   -1.5000    0.0000 C   0  0
    2.7343   -2.9815    0.0000 S   0  0
  1  2  1  0
  3  2  1  6
  3  4  1  0
  4  5  1  0
  5  6  2  0
  6  7  1  0
  7  8  2  0
  8  9  1  0
  8 10  1  0
 10 11  2  0
 11  5  1  0
  3 12  1  0
 12 13  1  0
 13 14  2  0
 13 15  1  0
 15 16  2  0
 16 17  1  0
 17 18  1  0
 17 19  2  0
 19 20  1  0
 20 21  2  0
 21 22  1  0
 22 23  2  0
 23 24  1  0
 24 25  1  0
 25 26  1  0
 26 27  2  0
 27 28  1  0
 28 20  1  0
 28 24  2  0
 19 29  1  0
 29 15  1  0
M  END
> <assay_chembl_id>
CHEMBL959248

> <assay_description>
Cytotoxicity against human LNCAP cells

> <document_journal>
Bioorg Med Chem Lett

> <molecule_chembl_id>
CHEMBL496690

> <standard_value>
66

> <IC50_uM>
0.066

> <Activity>
Yes

> <Canonical_Smiles>
NC[C@H](Cc1ccc(F)cc1)NC(=O)c1cc(Br)c(-c2ccnc3[nH]ccc23)s1

$$$$

  SciTegic03142313312D

 32 35  0  0  1  0            999 V2000
    6.9014   -6.1984    0.0000 N   0  0
    6.0174   -7.4102    0.0000 C   0  0
    4.5250   -7.2514    0.0000 C   0  0  2  0  0  0
    3.6391   -8.4629    0.0000 C   0  0
    4.2445   -9.8362    0.0000 C   0  0
    5.7361   -9.9955    0.0000 C   0  0
    6.3440  -11.3668    0.0000 C   0  0
    5.4603  -12.5789    0.0000 C   0  0
    3.9688  -12.4197    0.0000 C   0  0
    3.3609  -11.0484    0.0000 C   0  0
    1.8686  -10.8891    0.0000 C   0  0
    0.9842  -12.1007    0.0000 F   0  0
    1.2611   -9.5176    0.0000 F   0  0
    0.3771  -10.7292    0.0000 F   0  0
    3.9195   -5.8781    0.0000 N   0  0
    4.8054   -4.6666    0.0000 C   0  0
    6.2966   -4.8284    0.0000 O   0  0
    4.2010   -3.2956    0.0000 C   0  0
    4.9531   -1.9978    0.0000 C   0  0
    3.9511   -0.8815    0.0000 C   0  0
    4.2566    0.5871    0.0000 Br  0  0
    2.5987   -1.5004    0.0000 C   0  0
    1.2990   -0.7500    0.0000 C   0  0
    1.2990    0.7500    0.0000 C   0  0
    0.0000    1.5000    0.0000 C   0  0
   -1.2990    0.7500    0.0000 N   0  0
   -1.2990   -0.7500    0.0000 C   0  0
   -2.4133   -1.7530    0.0000 N   0  0
   -1.8032   -3.1233    0.0000 C   0  0
   -0.3114   -2.9665    0.0000 C   0  0
    0.0000   -1.5000    0.0000 C   0  0
    2.7343   -2.9815    0.0000 S   0  0
  1  2  1  0
  3  2  1  6
  3  4  1  0
  4  5  1  0
  5  6  2  0
  6  7  1  0
  7  8  2  0
  8  9  1  0
  9 10  2  0
 10  5  1  0
 10 11  1  0
 11 12  1  0
 11 13  1  0
 11 14  1  0
  3 15  1  0
 15 16  1  0
 16 17  2  0
 16 18  1  0
 18 19  2  0
 19 20  1  0
 20 21  1  0
 20 22  2  0
 22 23  1  0
 23 24  2  0
 24 25  1  0
 25 26  2  0
 26 27  1  0
 27 28  1  0
 28 29  1  0
 29 30  2  0
 30 31  1  0
 31 23  1  0
 31 27  2  0
 22 32  1  0
 32 18  1  0
M  END
> <assay_chembl_id>
CHEMBL959248

> <assay_description>
Cytotoxicity against human LNCAP cells

> <document_journal>
Bioorg Med Chem Lett

> <molecule_chembl_id>
CHEMBL520788

> <standard_value>
24

> <IC50_uM>
0.024

> <Activity>
Yes

> <Canonical_Smiles>
NC[C@H](Cc1ccccc1C(F)(F)F)NC(=O)c1cc(Br)c(-c2ccnc3[nH]ccc23)s1

$$$$

  SciTegic03142313312D

 32 35  0  0  1  0            999 V2000
    6.9014   -6.1984    0.0000 N   0  0
    6.0174   -7.4102    0.0000 C   0  0
    4.5250   -7.2514    0.0000 C   0  0  2  0  0  0
    3.6391   -8.4629    0.0000 C   0  0
    4.2445   -9.8362    0.0000 C   0  0
    3.3609  -11.0484    0.0000 C   0  0
    3.9688  -12.4197    0.0000 C   0  0
    5.4604  -12.5789    0.0000 C   0  0
    6.3440  -11.3668    0.0000 C   0  0
    7.8363  -11.5261    0.0000 C   0  0
    8.4451  -12.8971    0.0000 F   0  0
    8.7196  -10.3138    0.0000 F   0  0
    9.3279  -11.6846    0.0000 F   0  0
    5.7361   -9.9955    0.0000 C   0  0
    3.9195   -5.8781    0.0000 N   0  0
    4.8054   -4.6666    0.0000 C   0  0
    6.2966   -4.8284    0.0000 O   0  0
    4.2010   -3.2956    0.0000 C   0  0
    4.9531   -1.9978    0.0000 C   0  0
    3.9511   -0.8815    0.0000 C   0  0
    4.2566    0.5871    0.0000 Br  0  0
    2.5987   -1.5004    0.0000 C   0  0
    1.2990   -0.7500    0.0000 C   0  0
    1.2990    0.7500    0.0000 C   0  0
    0.0000    1.5000    0.0000 C   0  0
   -1.2990    0.7500    0.0000 N   0  0
   -1.2990   -0.7500    0.0000 C   0  0
   -2.4133   -1.7530    0.0000 N   0  0
   -1.8032   -3.1233    0.0000 C   0  0
   -0.3114   -2.9665    0.0000 C   0  0
    0.0000   -1.5000    0.0000 C   0  0
    2.7343   -2.9815    0.0000 S   0  0
  1  2  1  0
  3  2  1  6
  3  4  1  0
  4  5  1  0
  5  6  2  0
  6  7  1  0
  7  8  2  0
  8  9  1  0
  9 10  1  0
 10 11  1  0
 10 12  1  0
 10 13  1  0
  9 14  2  0
 14  5  1  0
  3 15  1  0
 15 16  1  0
 16 17  2  0
 16 18  1  0
 18 19  2  0
 19 20  1  0
 20 21  1  0
 20 22  2  0
 22 23  1  0
 23 24  2  0
 24 25  1  0
 25 26  2  0
 26 27  1  0
 27 28  1  0
 28 29  1  0
 29 30  2  0
 30 31  1  0
 31 23  1  0
 31 27  2  0
 22 32  1  0
 32 18  1  0
M  END
> <assay_chembl_id>
CHEMBL959248

> <assay_description>
Cytotoxicity against human LNCAP cells

> <document_journal>
Bioorg Med Chem Lett

> <molecule_chembl_id>
CHEMBL482536

> <standard_value>
78

> <IC50_uM>
0.078

> <Activity>
Yes

> <Canonical_Smiles>
NC[C@H](Cc1cccc(C(F)(F)F)c1)NC(=O)c1cc(Br)c(-c2ccnc3[nH]ccc23)s1

$$$$

  SciTegic03142313312D

 32 35  0  0  1  0            999 V2000
    6.9014   -6.1984    0.0000 N   0  0
    6.0174   -7.4102    0.0000 C   0  0
    4.5250   -7.2514    0.0000 C   0  0  2  0  0  0
    3.6391   -8.4629    0.0000 C   0  0
    4.2445   -9.8362    0.0000 C   0  0
    3.3609  -11.0484    0.0000 C   0  0
    3.9688  -12.4197    0.0000 C   0  0
    5.4604  -12.5789    0.0000 C   0  0
    6.0686  -13.9510    0.0000 C   0  0
    5.1857  -15.1636    0.0000 F   0  0
    7.5601  -14.1097    0.0000 F   0  0
    6.6771  -15.3220    0.0000 F   0  0
    6.3440  -11.3668    0.0000 C   0  0
    5.7361   -9.9955    0.0000 C   0  0
    3.9195   -5.8781    0.0000 N   0  0
    4.8054   -4.6666    0.0000 C   0  0
    6.2966   -4.8284    0.0000 O   0  0
    4.2010   -3.2956    0.0000 C   0  0
    4.9531   -1.9978    0.0000 C   0  0
    3.9511   -0.8815    0.0000 C   0  0
    4.2566    0.5871    0.0000 Br  0  0
    2.5987   -1.5004    0.0000 C   0  0
    1.2990   -0.7500    0.0000 C   0  0
    1.2990    0.7500    0.0000 C   0  0
    0.0000    1.5000    0.0000 C   0  0
   -1.2990    0.7500    0.0000 N   0  0
   -1.2990   -0.7500    0.0000 C   0  0
   -2.4133   -1.7530    0.0000 N   0  0
   -1.8032   -3.1233    0.0000 C   0  0
   -0.3114   -2.9665    0.0000 C   0  0
    0.0000   -1.5000    0.0000 C   0  0
    2.7343   -2.9815    0.0000 S   0  0
  1  2  1  0
  3  2  1  6
  3  4  1  0
  4  5  1  0
  5  6  2  0
  6  7  1  0
  7  8  2  0
  8  9  1  0
  9 10  1  0
  9 11  1  0
  9 12  1  0
  8 13  1  0
 13 14  2  0
 14  5  1  0
  3 15  1  0
 15 16  1  0
 16 17  2  0
 16 18  1  0
 18 19  2  0
 19 20  1  0
 20 21  1  0
 20 22  2  0
 22 23  1  0
 23 24  2  0
 24 25  1  0
 25 26  2  0
 26 27  1  0
 27 28  1  0
 28 29  1  0
 29 30  2  0
 30 31  1  0
 31 23  1  0
 31 27  2  0
 22 32  1  0
 32 18  1  0
M  END
> <assay_chembl_id>
CHEMBL959248

> <assay_description>
Cytotoxicity against human LNCAP cells

> <document_journal>
Bioorg Med Chem Lett

> <molecule_chembl_id>
CHEMBL482537

> <standard_value>
440

> <IC50_uM>
0.44

> <Activity>
Yes

> <Canonical_Smiles>
NC[C@H](Cc1ccc(C(F)(F)F)cc1)NC(=O)c1cc(Br)c(-c2ccnc3[nH]ccc23)s1

$$$$

  SciTegic03142313312D

 46 50  0  0  1  0            999 V2000
    0.6013   -8.4708    0.0000 C   0  0
    2.0972   -8.3600    0.0000 O   0  0
    2.7505   -7.0088    0.0000 C   0  0
    1.9048   -5.7699    0.0000 C   0  0
    2.5536   -4.4230    0.0000 C   0  0
    1.8032   -3.1233    0.0000 C   0  0  2  0  0  0
    2.4133   -1.7530    0.0000 O   0  0
    1.2990   -0.7500    0.0000 C   0  0
    1.2990    0.7500    0.0000 C   0  0
    2.5972    1.5031    0.0000 O   0  0
    2.5951    3.0031    0.0000 C   0  0
    0.0000    1.5000    0.0000 C   0  0
   -1.2990    0.7500    0.0000 C   0  0
   -2.6003    1.4977    0.0000 C   0  0
   -3.8990    0.7455    0.0000 C   0  0
   -5.2003    1.4932    0.0000 C   0  0
   -5.2029    2.9932    0.0000 O   0  0
   -6.4990    0.7409    0.0000 N   0  0
   -7.8003    1.4887    0.0000 C   0  0
   -9.0990    0.7364    0.0000 C   0  0
  -10.4003    1.4841    0.0000 C   0  0
  -11.6994    0.7341    0.0000 C   0  0
  -12.9984    1.4841    0.0000 C   0  0
  -12.9985    2.9841    0.0000 C   0  0
  -14.2975    3.7341    0.0000 O   0  0
  -11.6994    3.7341    0.0000 C   0  0
  -10.4004    2.9842    0.0000 C   0  0
   -1.2990   -0.7500    0.0000 C   0  0
    0.0000   -1.5000    0.0000 C   0  0
    0.3114   -2.9665    0.0000 C   0  0  1  0  0  0
   -0.6936   -4.0776    0.0000 C   0  0
   -0.2329   -5.5051    0.0000 O   0  0
   -2.1611   -3.7632    0.0000 N   0  0
   -3.1679   -4.8762    0.0000 C   0  0
   -4.6354   -4.5618    0.0000 C   0  0
   -5.6422   -5.6748    0.0000 C   0  0
   -7.1094   -5.3627    0.0000 C   0  0
   -8.1134   -6.4771    0.0000 C   0  0
   -7.6502   -7.9038    0.0000 C   0  0
   -8.6541   -9.0183    0.0000 O   0  0
   -6.1830   -8.2161    0.0000 C   0  0
   -5.1791   -7.1016    0.0000 C   0  0
    4.0507   -4.3052    0.0000 C   0  0
    4.8963   -5.5442    0.0000 C   0  0
    4.2462   -6.8959    0.0000 C   0  0
    5.0918   -8.1349    0.0000 O   0  0
  1  2  1  0
  2  3  1  0
  3  4  2  0
  4  5  1  0
  6  5  1  1
  6  7  1  0
  7  8  1  0
  8  9  2  0
  9 10  1  0
 10 11  1  0
  9 12  1  0
 12 13  2  0
 13 14  1  0
 14 15  2  0
 15 16  1  0
 16 17  2  0
 16 18  1  0
 18 19  1  0
 19 20  1  0
 20 21  1  0
 21 22  2  0
 22 23  1  0
 23 24  2  0
 24 25  1  0
 24 26  1  0
 26 27  2  0
 27 21  1  0
 13 28  1  0
 28 29  2  0
 29  8  1  0
 29 30  1  0
 30  6  1  0
 30 31  1  6
 31 32  2  0
 31 33  1  0
 33 34  1  0
 34 35  1  0
 35 36  1  0
 36 37  2  0
 37 38  1  0
 38 39  2  0
 39 40  1  0
 39 41  1  0
 41 42  2  0
 42 36  1  0
  5 43  2  0
 43 44  1  0
 44 45  2  0
 45  3  1  0
 45 46  1  0
M  END
> <assay_chembl_id>
CHEMBL1020868

> <assay_description>
Cytotoxicity against human LNCAP cells after 48 hrs by MTT assay

> <document_journal>
J Nat Prod

> <molecule_chembl_id>
CHEMBL500729

> <standard_value>
33000

> <IC50_uM>
33

> <Activity>
No

> <Canonical_Smiles>
COc1cc([C@@H]2Oc3c(OC)cc(/C=C/C(=O)NCCc4ccc(O)cc4)cc3[C@H]2C(=O)NCCc2ccc(O)cc2)ccc1O

$$$$

  SciTegic03142313312D

 46 50  0  0  1  0            999 V2000
    2.6018   -5.9994    0.0000 C   0  0
    3.9008   -5.2492    0.0000 O   0  0
    3.9014   -3.7484    0.0000 C   0  0
    2.6012   -3.0004    0.0000 C   0  0
    2.5987   -1.5004    0.0000 C   0  0
    1.2990   -0.7500    0.0000 C   0  0  2  0  0  0
    1.2990    0.7500    0.0000 C   0  0
    2.5981    1.5000    0.0000 C   0  0
    2.5981    3.0000    0.0000 C   0  0
    3.8971    3.7500    0.0000 O   0  0
    1.2990    3.7500    0.0000 C   0  0
    1.2959    5.2508    0.0000 O   0  0
   -0.0042    5.9990    0.0000 C   0  0
    0.0000    3.0000    0.0000 C   0  0
    0.0000    1.5000    0.0000 C   0  0
   -1.2990    0.7500    0.0000 C   0  0
   -1.2990   -0.7500    0.0000 C   0  0
   -2.6003   -1.4978    0.0000 C   0  0
   -2.6029   -2.9978    0.0000 O   0  0
   -3.8990   -0.7455    0.0000 N   0  0
   -5.2003   -1.4932    0.0000 C   0  0
   -6.4990   -0.7410    0.0000 C   0  0
   -7.8003   -1.4887    0.0000 C   0  0
   -9.0994   -0.7388    0.0000 C   0  0
  -10.3984   -1.4887    0.0000 C   0  0
  -10.3985   -2.9887    0.0000 C   0  0
  -11.6975   -3.7387    0.0000 O   0  0
   -9.0994   -3.7388    0.0000 C   0  0
   -7.8004   -2.9888    0.0000 C   0  0
    0.0000   -1.5000    0.0000 C   0  0  1  0  0  0
   -0.0031   -3.0008    0.0000 C   0  0
    1.2947   -3.7531    0.0000 O   0  0
   -1.3039   -3.7494    0.0000 N   0  0
   -1.3070   -5.2502    0.0000 C   0  0
   -2.6078   -5.9988    0.0000 C   0  0
   -2.6109   -7.4996    0.0000 C   0  0
   -3.9099   -8.2497    0.0000 C   0  0
   -3.9099   -9.7497    0.0000 C   0  0
   -2.6109  -10.4997    0.0000 C   0  0
   -2.6110  -11.9997    0.0000 O   0  0
   -1.3119   -9.7497    0.0000 C   0  0
   -1.3118   -8.2497    0.0000 C   0  0
    3.8967   -0.7484    0.0000 C   0  0
    5.1969   -1.4963    0.0000 C   0  0
    5.1993   -2.9963    0.0000 C   0  0
    6.4995   -3.7442    0.0000 O   0  0
  1  2  1  0
  2  3  1  0
  3  4  2  0
  4  5  1  0
  6  5  1  1
  6  7  1  0
  7  8  2  0
  8  9  1  0
  9 10  1  0
  9 11  2  0
 11 12  1  0
 12 13  1  0
 11 14  1  0
 14 15  2  0
 15  7  1  0
 15 16  1  0
 16 17  2  0
 17 18  1  0
 18 19  2  0
 18 20  1  0
 20 21  1  0
 21 22  1  0
 22 23  1  0
 23 24  2  0
 24 25  1  0
 25 26  2  0
 26 27  1  0
 26 28  1  0
 28 29  2  0
 29 23  1  0
 17 30  1  0
 30  6  1  0
 30 31  1  6
 31 32  2  0
 31 33  1  0
 33 34  1  0
 34 35  1  0
 35 36  1  0
 36 37  2  0
 37 38  1  0
 38 39  2  0
 39 40  1  0
 39 41  1  0
 41 42  2  0
 42 36  1  0
  5 43  2  0
 43 44  1  0
 44 45  2  0
 45  3  1  0
 45 46  1  0
M  END
> <assay_chembl_id>
CHEMBL1020868

> <assay_description>
Cytotoxicity against human LNCAP cells after 48 hrs by MTT assay

> <document_journal>
J Nat Prod

> <molecule_chembl_id>
CHEMBL445592

> <standard_value>
81000

> <IC50_uM>
81

> <Activity>
No

> <Canonical_Smiles>
COc1cc([C@@H]2c3cc(O)c(OC)cc3C=C(C(=O)NCCc3ccc(O)cc3)[C@H]2C(=O)NCCc2ccc(O)cc2)ccc1O

$$$$

  SciTegic03142313312D

 46 49  0  0  0  0            999 V2000
    2.6044   -2.9977    0.0000 C   0  0
    2.6003   -1.4977    0.0000 O   0  0
    1.2990   -0.7500    0.0000 C   0  0
    1.2990    0.7500    0.0000 C   0  0
    0.0000    1.5000    0.0000 C   0  0
   -0.0031    3.0008    0.0000 C   0  0
    1.2946    3.7547    0.0000 C   0  0
    1.2932    5.2556    0.0000 C   0  0
    2.1589    5.7561    0.0000 O   0  0
   -0.0068    6.0056    0.0000 N   0  0
   -0.0082    7.5064    0.0000 C   0  0
   -1.3082    8.2564    0.0000 C   0  0
   -1.3096    9.7572    0.0000 C   0  0
   -2.6078   10.5087    0.0000 C   0  0
   -2.6062   12.0087    0.0000 C   0  0
   -1.3064   12.7573    0.0000 C   0  0
   -1.3047   14.2573    0.0000 O   0  0
   -0.0081   12.0059    0.0000 C   0  0
   -0.0098   10.5059    0.0000 C   0  0
    2.5946    3.0047    0.0000 C   0  0
    3.8955    3.7533    0.0000 C   0  0
    3.8985    5.2541    0.0000 C   0  0
    5.1976    6.0042    0.0000 C   0  0
    5.1976    7.5042    0.0000 C   0  0
    3.8986    8.2542    0.0000 C   0  0
    3.8986    9.7542    0.0000 O   0  0
    2.5995    7.5043    0.0000 C   0  0
    1.2982    8.2520    0.0000 O   0  0
    0.4329    7.7508    0.0000 C   0  0
    2.5995    6.0043    0.0000 C   0  0
    2.5961    1.5039    0.0000 C   0  0
    1.7303    1.0034    0.0000 O   0  0
    3.8960    0.7539    0.0000 N   0  0
    3.8975   -0.7469    0.0000 C   0  0
    5.1975   -1.4969    0.0000 C   0  0
    5.1989   -2.9977    0.0000 C   0  0
    6.4971   -3.7492    0.0000 C   0  0
    6.4955   -5.2492    0.0000 C   0  0
    5.1956   -5.9978    0.0000 C   0  0
    5.1940   -7.4978    0.0000 O   0  0
    3.8974   -5.2464    0.0000 C   0  0
    3.8990   -3.7464    0.0000 C   0  0
   -1.2990    0.7500    0.0000 C   0  0
   -1.2990   -0.7500    0.0000 C   0  0
    0.0000   -1.5000    0.0000 C   0  0
    0.0000   -3.0000    0.0000 O   0  0
  1  2  1  0
  2  3  1  0
  3  4  2  0
  4  5  1  0
  5  6  1  0
  6  7  2  0
  7  8  1  0
  8  9  2  0
  8 10  1  0
 10 11  1  0
 11 12  1  0
 12 13  1  0
 13 14  2  0
 14 15  1  0
 15 16  2  0
 16 17  1  0
 16 18  1  0
 18 19  2  0
 19 13  1  0
  7 20  1  0
 20 21  2  0
 21 22  1  0
 22 23  2  0
 23 24  1  0
 24 25  2  0
 25 26  1  0
 25 27  1  0
 27 28  1  0
 28 29  1  0
 27 30  2  0
 30 22  1  0
 20 31  1  0
 31 32  2  0
 31 33  1  0
 33 34  1  0
 34 35  1  0
 35 36  1  0
 36 37  2  0
 37 38  1  0
 38 39  2  0
 39 40  1  0
 39 41  1  0
 41 42  2  0
 42 36  1  0
  5 43  2  0
 43 44  1  0
 44 45  2  0
 45  3  1  0
 45 46  1  0
M  END
> <assay_chembl_id>
CHEMBL1020868

> <assay_description>
Cytotoxicity against human LNCAP cells after 48 hrs by MTT assay

> <document_journal>
J Nat Prod

> <molecule_chembl_id>
CHEMBL445810

> <standard_value>
76000

> <IC50_uM>
76

> <Activity>
No

> <Canonical_Smiles>
COc1cc(/C=C(C(=O)NCCc2ccc(O)cc2)\C(=C/c2ccc(O)c(OC)c2)C(=O)NCCc2ccc(O)cc2)ccc1O

$$$$

  SciTegic03142313312D

 26 30  0  0  1  0            999 V2000
    2.5228   -3.0436    0.0000 C   0  0
    1.2626   -2.2300    0.0000 C   0  0
    1.2990   -0.7500    0.0000 C   0  0  1  0  0  0
    2.5793    0.0316    0.0000 O   0  0
    1.2990    0.7500    0.0000 C   0  0
    2.5981    1.5000    0.0000 O   0  0
    0.0000    1.5000    0.0000 O   0  0
   -1.2990    0.7500    0.0000 C   0  0
   -1.2990   -0.7500    0.0000 C   0  0
    0.0000   -1.5000    0.0000 C   0  0
    0.0000   -3.0000    0.0000 C   0  0
   -1.2990   -3.7500    0.0000 C   0  0
   -2.5981   -3.0000    0.0000 N   0  0
   -2.5981   -1.5000    0.0000 C   0  0
   -3.8971   -0.7500    0.0000 O   0  0
   -3.7124   -4.0030    0.0000 C   0  0
   -3.1022   -5.3733    0.0000 C   0  0
   -3.7125   -6.7424    0.0000 C   0  0
   -2.8308   -7.9559    0.0000 C   0  0
   -3.4409   -9.3262    0.0000 C   0  0
   -2.5592  -10.5397    0.0000 C   0  0
   -1.0674  -10.3829    0.0000 C   0  0
   -0.4573   -9.0126    0.0000 C   0  0
   -1.3390   -7.7991    0.0000 C   0  0
   -0.7289   -6.4288    0.0000 N   0  0
   -1.6105   -5.2165    0.0000 C   0  0
  1  2  1  0
  2  3  1  0
  3  4  1  1
  3  5  1  0
  5  6  2  0
  5  7  1  0
  7  8  1  0
  8  9  1  0
  9 10  2  0
 10  3  1  0
 10 11  1  0
 11 12  2  0
 12 13  1  0
 13 14  1  0
 14  9  1  0
 14 15  2  0
 13 16  1  0
 16 17  1  0
 17 18  2  0
 18 19  1  0
 19 20  2  0
 20 21  1  0
 21 22  2  0
 22 23  1  0
 23 24  2  0
 24 19  1  0
 24 25  1  0
 25 26  2  0
 26 17  1  0
 26 12  1  0
M  END
> <assay_chembl_id>
CHEMBL1020873

> <assay_description>
Cytotoxicity against human LNCAP cells by MTT assay

> <document_journal>
J Nat Prod

> <molecule_chembl_id>
CHEMBL65

> <standard_value>
86.1

> <IC50_uM>
0.0861

> <Activity>
Yes

> <Canonical_Smiles>
CC[C@@]1(O)C(=O)OCc2c1cc1n(c2=O)Cc2cc3ccccc3nc2-1

$$$$

  SciTegic03142313312D

 22 23  0  0  1  0            999 V2000
    7.7996   -1.4883    0.0000 C   0  0
    6.4990   -0.7409    0.0000 C   0  0
    5.2003   -1.4932    0.0000 C   0  0
    3.8990   -0.7455    0.0000 C   0  0
    2.6003   -1.4977    0.0000 C   0  0
    1.2990   -0.7500    0.0000 C   0  0  1  0  0  0
    1.2990    0.7500    0.0000 O   0  0
    0.0000    1.5000    0.0000 C   0  0
    0.0000    3.0000    0.0000 O   0  0
   -1.2990    0.7500    0.0000 C   0  0
   -2.5981    1.5000    0.0000 C   0  0
   -3.8971    0.7500    0.0000 C   0  0
   -3.8971   -0.7500    0.0000 C   0  0
   -5.1953   -1.5031    0.0000 O   0  0
   -5.1932   -3.0031    0.0000 C   0  0
   -2.5981   -1.5000    0.0000 C   0  0
   -1.2990   -0.7500    0.0000 C   0  0
    0.0000   -1.5000    0.0000 C   0  0  1  0  0  0
   -0.0031   -3.0008    0.0000 O   0  0
   -1.3039   -3.7494    0.0000 C   0  0
   -2.6016   -2.9971    0.0000 C   0  0
   -1.3070   -5.2494    0.0000 O   0  0
  1  2  1  0
  2  3  1  0
  3  4  1  0
  4  5  1  0
  6  5  1  6
  6  7  1  0
  7  8  1  0
  8  9  2  0
  8 10  1  0
 10 11  2  0
 11 12  1  0
 12 13  2  0
 13 14  1  0
 14 15  1  0
 13 16  1  0
 16 17  2  0
 17 10  1  0
 17 18  1  0
 18  6  1  0
 18 19  1  6
 19 20  1  0
 20 21  1  0
 20 22  2  0
M  END
> <assay_chembl_id>
CHEMBL958778

> <assay_description>
Antiproliferative activity against human LNCaP 1740 cells assessed as cell growth after 4 days by sulforhodamine B assay

> <document_journal>
J Nat Prod

> <molecule_chembl_id>
CHEMBL529220

> <standard_value>
57500

> <IC50_uM>
57.5

> <Activity>
No

> <Canonical_Smiles>
CCCCC[C@H]1OC(=O)c2ccc(OC)cc2[C@H]1OC(C)=O

$$$$

  SciTegic03142313312D

 46 49  0  0  1  0            999 V2000
   -5.2325   -4.3670    0.0000 C   0  0
   -3.7604   -4.6549    0.0000 C   0  0
   -3.2741   -6.0739    0.0000 C   0  0
   -2.7700   -3.5200    0.0000 C   0  0  1  0  0  0
   -3.6400   -2.1100    0.0000 N   0  0
   -3.0600   -0.8000    0.0000 C   0  0
   -1.5902   -0.5006    0.0000 O   0  0
   -4.3000    0.3600    0.0000 C   0  0
   -3.5000    1.7400    0.0000 C   0  0  2  0  0  0
   -3.5000    2.9300    0.0000 N   0  0
   -1.6300    3.7800    0.0000 C   0  0
   -1.9475    5.2460    0.0000 O   0  0
    0.9600    3.7800    0.0000 C   0  0  2  0  0  0
    1.8359    4.9889    0.0000 C   0  0
    1.2286    6.3614    0.0000 C   0  0
    2.1079    7.5765    0.0000 C   0  0
    1.4953    8.9457    0.0000 C   0  0
    0.0032    9.0997    0.0000 C   0  0
   -0.8762    7.8846    0.0000 C   0  0
   -0.2636    6.5154    0.0000 C   0  0
    1.8200    2.1800    0.0000 N   0  0
    3.3500    2.1800    0.0000 C   0  0
    4.0663    3.4979    0.0000 O   0  0
    4.4000    0.5600    0.0000 C   0  0  2  0  0  0
    5.8748    0.8523    0.0000 C   0  0
    6.3603    2.2725    0.0000 C   0  0
    7.8313    2.5659    0.0000 C   0  0
    8.3127    3.9866    0.0000 C   0  0
    7.3231    5.1138    0.0000 C   0  0
    5.8521    4.8205    0.0000 C   0  0
    5.3707    3.3998    0.0000 C   0  0
    4.2200   -1.1700    0.0000 N   0  0
    2.7300   -2.3100    0.0000 C   0  0
    3.3354   -3.6824    0.0000 O   0  0
    1.0600   -2.6100    0.0000 C   0  0  2  0  0  0
    0.5100   -1.7100    0.0000 C   0  0
    1.1200   -0.8600    0.0000 S   0  0
    1.1200    0.1700    0.0000 S   0  0
    0.1700    0.8900    0.0000 C   0  0
   -0.7300    0.2000    0.0000 C   0  0
   -2.2400    0.4400    0.0000 N   0  0
   -2.2400    1.3600    0.0000 C   0  0
   -1.0359    2.2545    0.0000 O   0  0
    0.3800   -3.9500    0.0000 N   0  0
   -1.3000   -4.2000    0.0000 C   0  0
   -1.5134   -5.6847    0.0000 O   0  0
  1  2  1  0
  2  3  1  0
  4  2  1  1
  4  5  1  0
  5  6  1  0
  6  7  2  0
  6  8  1  0
  9  8  1  6
  9 10  1  0
 10 11  1  0
 11 12  2  0
 11 13  1  0
 13 14  1  6
 14 15  1  0
 15 16  2  0
 16 17  1  0
 17 18  2  0
 18 19  1  0
 19 20  2  0
 20 15  1  0
 13 21  1  0
 21 22  1  0
 22 23  2  0
 22 24  1  0
 24 25  1  6
 25 26  1  0
 26 27  2  0
 27 28  1  0
 28 29  2  0
 29 30  1  0
 30 31  2  0
 31 26  1  0
 24 32  1  0
 32 33  1  0
 33 34  2  0
 33 35  1  0
 35 36  1  1
 36 37  1  0
 37 38  1  0
 38 39  1  0
 39 40  1  0
 40 41  1  0
 41 42  1  0
 42  9  1  0
 42 43  2  0
 35 44  1  0
 44 45  1  0
 45  4  1  0
 45 46  2  0
M  END
> <assay_chembl_id>
CHEMBL981843

> <assay_description>
Antitumor activity against human LNCAP cells after 3 days by MTT assay

> <document_journal>
J Med Chem

> <molecule_chembl_id>
CHEMBL502353

> <standard_value>
270

> <IC50_uM>
0.27

> <Activity>
Yes

> <Canonical_Smiles>
CC(C)[C@H]1NC(=O)C[C@@H]2NC(=O)[C@H](Cc3ccccc3)NC(=O)[C@H](Cc3ccccc3)NC(=O)[C@H](CSSCCNC2=O)NC1=O

$$$$

  SciTegic03142313312D

 18 20  0  0  0  0            999 V2000
    2.5800    0.0305    0.0000 C   0  0
    1.2990   -0.7500    0.0000 C   0  0
    1.2638   -2.2496    0.0000 C   0  0
    1.2990    0.7500    0.0000 C   0  0
    0.0000    1.5000    0.0000 C   0  0
   -1.2990    0.7500    0.0000 C   0  0
   -1.2990   -0.7500    0.0000 C   0  0
    0.0000   -1.5000    0.0000 O   0  0
   -2.5981   -1.5000    0.0000 C   0  0
   -2.5981   -3.0000    0.0000 O   0  0
   -3.8971   -0.7500    0.0000 C   0  0
   -5.1962   -1.5000    0.0000 C   0  0
   -6.4952   -0.7500    0.0000 C   0  0
   -6.4952    0.7500    0.0000 C   0  0
   -5.1962    1.5000    0.0000 C   0  0
   -3.8971    0.7500    0.0000 C   0  0
   -2.5981    1.5000    0.0000 C   0  0
   -2.5981    3.0000    0.0000 O   0  0
  1  2  1  0
  2  3  1  0
  2  4  1  0
  4  5  1  0
  5  6  1  0
  6  7  2  0
  7  8  1  0
  8  2  1  0
  7  9  1  0
  9 10  2  0
  9 11  1  0
 11 12  2  0
 12 13  1  0
 13 14  2  0
 14 15  1  0
 15 16  2  0
 16 11  1  0
 16 17  1  0
 17  6  1  0
 17 18  2  0
M  END
> <assay_chembl_id>
CHEMBL1006915

> <assay_description>
Cytotoxicity against human LNCAP cells after 72 hrs by SRB assay

> <document_journal>
J Nat Prod

> <molecule_chembl_id>
CHEMBL441441

> <standard_value>
29300

> <IC50_uM>
29.3

> <Activity>
No

> <Canonical_Smiles>
CC1(C)CCC2=C(O1)C(=O)c1ccccc1C2=O

$$$$

  SciTegic03142313312D

 25 26  0  0  0  0            999 V2000
    2.5981   -1.5000    0.0000 C   0  0
    1.2990   -0.7500    0.0000 C   0  0
    1.2990    0.7500    0.0000 C   0  0
    2.6003    1.4978    0.0000 C   0  0
    3.8990    0.7455    0.0000 C   0  0
    5.2003    1.4932    0.0000 C   0  0
    5.2029    2.9932    0.0000 O   0  0
    6.4990    0.7410    0.0000 C   0  0
    7.8003    1.4887    0.0000 C   0  0
    9.0990    0.7365    0.0000 C   0  0
   10.4007    1.4819    0.0000 C   0  0
   11.6971    0.7274    0.0000 C   0  0
   11.6919   -0.7725    0.0000 C   0  0
   12.9884   -1.5270    0.0000 O   0  0
   10.3903   -1.5181    0.0000 C   0  0
   10.3820   -3.0189    0.0000 N   0  3
    9.0794   -3.7625    0.0000 O   0  0
   11.6772   -3.7756    0.0000 O   0  5
    9.0939   -0.7636    0.0000 C   0  0
    0.0000    1.5000    0.0000 C   0  0
    1.3164    2.2191    0.0000 C   0  0
   -1.3163    2.2193    0.0000 C   0  0
   -1.2990    0.7500    0.0000 C   0  0
   -1.2990   -0.7500    0.0000 C   0  0
    0.0000   -1.5000    0.0000 C   0  0
  1  2  1  0
  2  3  2  0
  3  4  1  0
  4  5  2  0
  5  6  1  0
  6  7  2  0
  6  8  1  0
  8  9  2  0
  9 10  1  0
 10 11  2  0
 11 12  1  0
 12 13  2  0
 13 14  1  0
 13 15  1  0
 15 16  1  0
 16 17  2  0
 16 18  1  0
 15 19  2  0
 19 10  1  0
  3 20  1  0
 20 21  1  0
 20 22  1  0
 20 23  1  0
 23 24  1  0
 24 25  1  0
 25  2  1  0
M  CHG  2  16   1  18  -1
M  END
> <assay_chembl_id>
CHEMBL1026520

> <assay_description>
Cytotoxicity against androgen-dependent human LNCAP cells with T877A AR mutant after 72 hrs by MTT assay

> <document_journal>
Bioorg Med Chem Lett

> <molecule_chembl_id>
CHEMBL514661

> <standard_value>
26800

> <IC50_uM>
26.8

> <Activity>
No

> <Canonical_Smiles>
CC1=C(/C=C/C(=O)/C=C/c2ccc(O)c([N+](=O)[O-])c2)C(C)(C)CCC1

$$$$

  SciTegic03142313312D

 25 26  0  0  0  0            999 V2000
    2.5981   -1.5000    0.0000 C   0  0
    1.2990   -0.7500    0.0000 C   0  0
    1.2990    0.7500    0.0000 C   0  0
    0.0000    1.5000    0.0000 C   0  0
   -1.2990    0.7500    0.0000 C   0  0
   -1.2990   -0.7500    0.0000 C   0  0
   -1.2636   -2.2496    0.0000 C   0  0
   -2.5801    0.0303    0.0000 C   0  0
    0.0000   -1.5000    0.0000 C   0  0  3  0  0  0
    0.0031   -3.0008    0.0000 C   0  0
    1.3039   -3.7494    0.0000 C   0  0
    1.3070   -5.2502    0.0000 C   0  0
    0.0093   -6.0025    0.0000 O   0  0
    2.6078   -5.9988    0.0000 C   0  0
    2.6109   -7.4996    0.0000 C   0  0
    3.9117   -8.2481    0.0000 C   0  0
    5.2083   -7.4937    0.0000 C   0  0
    6.5099   -8.2392    0.0000 C   0  0
    6.5151   -9.7392    0.0000 C   0  0
    5.2187  -10.4937    0.0000 C   0  0
    3.9170   -9.7482    0.0000 C   0  0
    2.6199  -10.5031    0.0000 C   0  0
    2.6242  -12.0031    0.0000 F   0  0
    1.3185   -9.7572    0.0000 F   0  0
    1.3231  -11.2570    0.0000 F   0  0
  1  2  1  0
  2  3  2  0
  3  4  1  0
  4  5  1  0
  5  6  1  0
  6  7  1  0
  6  8  1  0
  6  9  1  0
  9  2  1  0
  9 10  1  4
 10 11  2  0
 11 12  1  0
 12 13  2  0
 12 14  1  0
 14 15  2  0
 15 16  1  0
 16 17  2  0
 17 18  1  0
 18 19  2  0
 19 20  1  0
 20 21  2  0
 21 16  1  0
 21 22  1  0
 22 23  1  0
 22 24  1  0
 22 25  1  0
M  END
> <assay_chembl_id>
CHEMBL1026520

> <assay_description>
Cytotoxicity against androgen-dependent human LNCAP cells with T877A AR mutant after 72 hrs by MTT assay

> <document_journal>
Bioorg Med Chem Lett

> <molecule_chembl_id>
CHEMBL474504

> <standard_value>
22600

> <IC50_uM>
22.6

> <Activity>
No

> <Canonical_Smiles>
CC1=CCCC(C)(C)C1/C=C/C(=O)/C=C/c1ccccc1C(F)(F)F

$$$$

  SciTegic03142313312D

 26 27  0  0  0  0            999 V2000
    2.5981   -1.5000    0.0000 C   0  0
    1.2990   -0.7500    0.0000 C   0  0
    1.2990    0.7500    0.0000 C   0  0
    2.6003    1.4978    0.0000 C   0  0
    3.8990    0.7455    0.0000 C   0  0
    5.2003    1.4932    0.0000 C   0  0
    5.2029    2.9932    0.0000 O   0  0
    6.4990    0.7410    0.0000 C   0  0
    7.8003    1.4887    0.0000 C   0  0
    9.0990    0.7365    0.0000 C   0  0
   10.4007    1.4819    0.0000 C   0  0
   11.6971    0.7274    0.0000 C   0  0
   11.6919   -0.7725    0.0000 C   0  0
   10.3903   -1.5181    0.0000 C   0  0
   10.3851   -3.0189    0.0000 C   0  0
   11.6811   -3.7742    0.0000 F   0  0
    9.0833   -3.7640    0.0000 F   0  0
   10.3792   -4.5189    0.0000 F   0  0
    9.0939   -0.7636    0.0000 C   0  0
    0.0000    1.5000    0.0000 C   0  0
    1.3164    2.2191    0.0000 C   0  0
   -1.3163    2.2193    0.0000 C   0  0
   -1.2990    0.7500    0.0000 C   0  0
   -1.2990   -0.7500    0.0000 C   0  0
    0.0000   -1.5000    0.0000 C   0  0  3  0  0  0
    0.0000   -3.0000    0.0000 O   0  0
  1  2  1  0
  2  3  2  0
  3  4  1  0
  4  5  2  0
  5  6  1  0
  6  7  2  0
  6  8  1  0
  8  9  2  0
  9 10  1  0
 10 11  2  0
 11 12  1  0
 12 13  2  0
 13 14  1  0
 14 15  1  0
 15 16  1  0
 15 17  1  0
 15 18  1  0
 14 19  2  0
 19 10  1  0
  3 20  1  0
 20 21  1  0
 20 22  1  0
 20 23  1  0
 23 24  1  0
 24 25  1  0
 25  2  1  0
 25 26  1  4
M  END
> <assay_chembl_id>
CHEMBL1026520

> <assay_description>
Cytotoxicity against androgen-dependent human LNCAP cells with T877A AR mutant after 72 hrs by MTT assay

> <document_journal>
Bioorg Med Chem Lett

> <molecule_chembl_id>
CHEMBL506089

> <standard_value>
740

> <IC50_uM>
0.74

> <Activity>
Yes

> <Canonical_Smiles>
CC1=C(/C=C/C(=O)/C=C/c2cccc(C(F)(F)F)c2)C(C)(C)CCC1O

$$$$

  SciTegic03142313312D

 26 28  0  0  0  0            999 V2000
    3.8983   -0.7459    0.0000 C   0  0
    2.6003   -1.4977    0.0000 O   0  0
    1.2990   -0.7500    0.0000 C   0  0
    1.2990    0.7500    0.0000 C   0  0
    0.0000    1.5000    0.0000 C   0  0
   -0.0031    3.0008    0.0000 C   0  0
    1.2946    3.7531    0.0000 O   0  0
   -1.3039    3.7494    0.0000 C   0  0
   -1.4470    5.2297    0.0000 C   0  0
   -2.9153    5.5365    0.0000 S   0  0
   -3.6607    4.2349    0.0000 C   0  0
   -5.1527    4.0728    0.0000 C   0  0
   -6.1233    5.2100    0.0000 C   0  0
   -7.5981    4.9362    0.0000 C   0  0
   -8.0984    3.5221    0.0000 C   0  0
   -9.5732    3.2484    0.0000 N   0  0
   -7.1240    2.3818    0.0000 C   0  0
   -5.6491    2.6555    0.0000 C   0  0
   -2.6532    3.1236    0.0000 N   0  0
   -1.2990    0.7500    0.0000 C   0  0
   -1.2990   -0.7500    0.0000 C   0  0
   -2.6003   -1.4978    0.0000 O   0  0
   -3.8983   -0.7459    0.0000 C   0  0
    0.0000   -1.5000    0.0000 C   0  0
    0.0031   -3.0008    0.0000 O   0  0
    1.3032   -3.7490    0.0000 C   0  0
  1  2  1  0
  2  3  1  0
  3  4  2  0
  4  5  1  0
  5  6  1  0
  6  7  2  0
  6  8  1  0
  8  9  2  0
  9 10  1  0
 10 11  1  0
 11 12  1  0
 12 13  2  0
 13 14  1  0
 14 15  2  0
 15 16  1  0
 15 17  1  0
 17 18  2  0
 18 12  1  0
 11 19  2  0
 19  8  1  0
  5 20  2  0
 20 21  1  0
 21 22  1  0
 22 23  1  0
 21 24  2  0
 24  3  1  0
 24 25  1  0
 25 26  1  0
M  END
> <assay_chembl_id>
CHEMBL1010706

> <assay_description>
Cytotoxicity against human LNCAP cells after 48 hrs by SRB assay

> <document_journal>
J Med Chem

> <molecule_chembl_id>
CHEMBL511796

> <standard_value>
13

> <IC50_uM>
0.013

> <Activity>
Yes

> <RemovedSalts>
HCl

> <Canonical_Smiles>
COc1cc(C(=O)c2csc(-c3ccc(N)cc3)n2)cc(OC)c1OC.Cl

$$$$

  SciTegic03142313312D

 24 26  0  0  0  0            999 V2000
    3.8983   -0.7459    0.0000 C   0  0
    2.6003   -1.4977    0.0000 O   0  0
    1.2990   -0.7500    0.0000 C   0  0
    1.2990    0.7500    0.0000 C   0  0
    0.0000    1.5000    0.0000 C   0  0
   -0.0031    3.0008    0.0000 C   0  0
    1.2946    3.7531    0.0000 O   0  0
   -1.3039    3.7494    0.0000 C   0  0
   -1.4470    5.2297    0.0000 C   0  0
   -2.9153    5.5365    0.0000 S   0  0
   -3.6607    4.2349    0.0000 C   0  0
   -5.1527    4.0728    0.0000 C   0  0
   -6.2187    5.1030    0.0000 C   0  0
   -7.5346    4.3830    0.0000 C   0  0
   -7.2565    2.9090    0.0000 C   0  0
   -5.7687    2.7181    0.0000 S   0  0
   -2.6532    3.1236    0.0000 N   0  0
   -1.2990    0.7500    0.0000 C   0  0
   -1.2990   -0.7500    0.0000 C   0  0
   -2.6003   -1.4978    0.0000 O   0  0
   -3.8983   -0.7459    0.0000 C   0  0
    0.0000   -1.5000    0.0000 C   0  0
    0.0031   -3.0008    0.0000 O   0  0
    1.3032   -3.7490    0.0000 C   0  0
  1  2  1  0
  2  3  1  0
  3  4  2  0
  4  5  1  0
  5  6  1  0
  6  7  2  0
  6  8  1  0
  8  9  2  0
  9 10  1  0
 10 11  1  0
 11 12  1  0
 12 13  2  0
 13 14  1  0
 14 15  2  0
 15 16  1  0
 16 12  1  0
 11 17  2  0
 17  8  1  0
  5 18  2  0
 18 19  1  0
 19 20  1  0
 20 21  1  0
 19 22  2  0
 22  3  1  0
 22 23  1  0
 23 24  1  0
M  END
> <assay_chembl_id>
CHEMBL1010706

> <assay_description>
Cytotoxicity against human LNCAP cells after 48 hrs by SRB assay

> <document_journal>
J Med Chem

> <molecule_chembl_id>
CHEMBL510476

> <standard_value>
9

> <IC50_uM>
0.009

> <Activity>
Yes

> <Canonical_Smiles>
COc1cc(C(=O)c2csc(-c3cccs3)n2)cc(OC)c1OC

$$$$

  SciTegic03142313312D

 27 29  0  0  0  0            999 V2000
    2.5951   -3.0031    0.0000 C   0  0
    2.5973   -1.5031    0.0000 C   0  0
    1.2990   -0.7500    0.0000 C   0  0
    1.2990    0.7500    0.0000 C   0  0
    0.0000    1.5000    0.0000 C   0  0
   -1.2990    0.7500    0.0000 C   0  0
   -2.5987    1.5004    0.0000 C   0  0
   -2.7390    2.9810    0.0000 N   0  0
   -4.2067    3.2905    0.0000 C   0  0
   -4.8211    4.6570    0.0000 C   0  0
   -3.9435    5.8735    0.0000 O   0  0
   -6.3142    4.8094    0.0000 C   0  0
   -6.9313    6.1766    0.0000 C   0  0
   -8.4239    6.3258    0.0000 C   0  0
   -9.0384    7.6950    0.0000 O   0  0
   -8.1612    8.9118    0.0000 C   0  0
   -9.2994    5.1078    0.0000 C   0  0
  -10.7931    5.2541    0.0000 O   0  0
  -11.6669    4.0348    0.0000 C   0  0
   -8.6823    3.7406    0.0000 C   0  0
   -9.5558    2.5202    0.0000 O   0  0
   -8.9369    1.1538    0.0000 C   0  0
   -7.1898    3.5914    0.0000 C   0  0
   -4.9546    1.9903    0.0000 C   0  0
   -3.9492    0.8772    0.0000 S   0  0
   -1.2990   -0.7500    0.0000 C   0  0
    0.0000   -1.5000    0.0000 C   0  0
  1  2  1  0
  2  3  1  0
  3  4  2  0
  4  5  1  0
  5  6  2  0
  6  7  1  0
  7  8  2  0
  8  9  1  0
  9 10  1  0
 10 11  2  0
 10 12  1  0
 12 13  2  0
 13 14  1  0
 14 15  1  0
 15 16  1  0
 14 17  2  0
 17 18  1  0
 18 19  1  0
 17 20  1  0
 20 21  1  0
 21 22  1  0
 20 23  2  0
 23 12  1  0
  9 24  2  0
 24 25  1  0
 25  7  1  0
  6 26  1  0
 26 27  2  0
 27  3  1  0
M  END
> <assay_chembl_id>
CHEMBL1010706

> <assay_description>
Cytotoxicity against human LNCAP cells after 48 hrs by SRB assay

> <document_journal>
J Med Chem

> <molecule_chembl_id>
CHEMBL459993

> <standard_value>
60

> <IC50_uM>
0.06

> <Activity>
Yes

> <Canonical_Smiles>
CCc1ccc(-c2nc(C(=O)c3cc(OC)c(OC)c(OC)c3)cs2)cc1

$$$$

  SciTegic03142313312D

 26 28  0  0  0  0            999 V2000
    3.8983   -0.7459    0.0000 C   0  0
    2.6003   -1.4977    0.0000 O   0  0
    1.2990   -0.7500    0.0000 C   0  0
    1.2990    0.7500    0.0000 C   0  0
    0.0000    1.5000    0.0000 C   0  0
   -0.0031    3.0008    0.0000 C   0  0
    1.2946    3.7531    0.0000 O   0  0
   -1.3039    3.7494    0.0000 C   0  0
   -1.4470    5.2297    0.0000 C   0  0
   -2.9153    5.5365    0.0000 S   0  0
   -3.6607    4.2349    0.0000 C   0  0
   -5.1527    4.0728    0.0000 C   0  0
   -6.1233    5.2100    0.0000 C   0  0
   -7.5981    4.9362    0.0000 C   0  0
   -8.0984    3.5221    0.0000 C   0  0
   -9.5732    3.2484    0.0000 Br  0  0
   -7.1240    2.3818    0.0000 C   0  0
   -5.6491    2.6555    0.0000 C   0  0
   -2.6532    3.1236    0.0000 N   0  0
   -1.2990    0.7500    0.0000 C   0  0
   -1.2990   -0.7500    0.0000 C   0  0
   -2.6003   -1.4978    0.0000 O   0  0
   -3.8983   -0.7459    0.0000 C   0  0
    0.0000   -1.5000    0.0000 C   0  0
    0.0031   -3.0008    0.0000 O   0  0
    1.3032   -3.7490    0.0000 C   0  0
  1  2  1  0
  2  3  1  0
  3  4  2  0
  4  5  1  0
  5  6  1  0
  6  7  2  0
  6  8  1  0
  8  9  2  0
  9 10  1  0
 10 11  1  0
 11 12  1  0
 12 13  2  0
 13 14  1  0
 14 15  2  0
 15 16  1  0
 15 17  1  0
 17 18  2  0
 18 12  1  0
 11 19  2  0
 19  8  1  0
  5 20  2  0
 20 21  1  0
 21 22  1  0
 22 23  1  0
 21 24  2  0
 24  3  1  0
 24 25  1  0
 25 26  1  0
M  END
> <assay_chembl_id>
CHEMBL1010706

> <assay_description>
Cytotoxicity against human LNCAP cells after 48 hrs by SRB assay

> <document_journal>
J Med Chem

> <molecule_chembl_id>
CHEMBL459992

> <standard_value>
44

> <IC50_uM>
0.044

> <Activity>
Yes

> <Canonical_Smiles>
COc1cc(C(=O)c2csc(-c3ccc(Br)cc3)n2)cc(OC)c1OC

$$$$

  SciTegic03142313312D

 29 31  0  0  0  0            999 V2000
    3.8983   -0.7459    0.0000 C   0  0
    2.6003   -1.4977    0.0000 O   0  0
    1.2990   -0.7500    0.0000 C   0  0
    1.2990    0.7500    0.0000 C   0  0
    0.0000    1.5000    0.0000 C   0  0
   -0.0031    3.0008    0.0000 C   0  0
    1.2946    3.7531    0.0000 O   0  0
   -1.3039    3.7494    0.0000 C   0  0
   -1.4470    5.2297    0.0000 C   0  0
   -2.9153    5.5365    0.0000 S   0  0
   -3.6607    4.2349    0.0000 C   0  0
   -5.1527    4.0728    0.0000 C   0  0
   -6.1233    5.2100    0.0000 C   0  0
   -7.5981    4.9362    0.0000 C   0  0
   -8.0984    3.5221    0.0000 C   0  0
   -9.5740    3.2482    0.0000 C   0  0
  -10.5492    4.3880    0.0000 F   0  0
  -10.0739    1.8340    0.0000 F   0  0
  -11.0487    2.9738    0.0000 F   0  0
   -7.1240    2.3818    0.0000 C   0  0
   -5.6491    2.6555    0.0000 C   0  0
   -2.6532    3.1236    0.0000 N   0  0
   -1.2990    0.7500    0.0000 C   0  0
   -1.2990   -0.7500    0.0000 C   0  0
   -2.6003   -1.4978    0.0000 O   0  0
   -3.8983   -0.7459    0.0000 C   0  0
    0.0000   -1.5000    0.0000 C   0  0
    0.0031   -3.0008    0.0000 O   0  0
    1.3032   -3.7490    0.0000 C   0  0
  1  2  1  0
  2  3  1  0
  3  4  2  0
  4  5  1  0
  5  6  1  0
  6  7  2  0
  6  8  1  0
  8  9  2  0
  9 10  1  0
 10 11  1  0
 11 12  1  0
 12 13  2  0
 13 14  1  0
 14 15  2  0
 15 16  1  0
 16 17  1  0
 16 18  1  0
 16 19  1  0
 15 20  1  0
 20 21  2  0
 21 12  1  0
 11 22  2  0
 22  8  1  0
  5 23  2  0
 23 24  1  0
 24 25  1  0
 25 26  1  0
 24 27  2  0
 27  3  1  0
 27 28  1  0
 28 29  1  0
M  END
> <assay_chembl_id>
CHEMBL1010706

> <assay_description>
Cytotoxicity against human LNCAP cells after 48 hrs by SRB assay

> <document_journal>
J Med Chem

> <molecule_chembl_id>
CHEMBL459775

> <standard_value>
94

> <IC50_uM>
0.094

> <Activity>
Yes

> <Canonical_Smiles>
COc1cc(C(=O)c2csc(-c3ccc(C(F)(F)F)cc3)n2)cc(OC)c1OC

$$$$

  SciTegic03142313312D

 27 29  0  0  0  0            999 V2000
    3.8983   -0.7459    0.0000 C   0  0
    2.6003   -1.4977    0.0000 O   0  0
    1.2990   -0.7500    0.0000 C   0  0
    1.2990    0.7500    0.0000 C   0  0
    0.0000    1.5000    0.0000 C   0  0
   -0.0031    3.0008    0.0000 C   0  0
    1.2946    3.7531    0.0000 O   0  0
   -1.3039    3.7494    0.0000 C   0  0
   -1.4470    5.2297    0.0000 C   0  0
   -2.9153    5.5365    0.0000 S   0  0
   -3.6607    4.2349    0.0000 C   0  0
   -5.1527    4.0728    0.0000 C   0  0
   -6.1233    5.2100    0.0000 C   0  0
   -7.5981    4.9362    0.0000 C   0  0
   -8.0984    3.5221    0.0000 C   0  0
   -9.5740    3.2482    0.0000 C   0  0
  -11.0489    2.9745    0.0000 N   0  0
   -7.1240    2.3818    0.0000 C   0  0
   -5.6491    2.6555    0.0000 C   0  0
   -2.6532    3.1236    0.0000 N   0  0
   -1.2990    0.7500    0.0000 C   0  0
   -1.2990   -0.7500    0.0000 C   0  0
   -2.6003   -1.4978    0.0000 O   0  0
   -3.8983   -0.7459    0.0000 C   0  0
    0.0000   -1.5000    0.0000 C   0  0
    0.0031   -3.0008    0.0000 O   0  0
    1.3032   -3.7490    0.0000 C   0  0
  1  2  1  0
  2  3  1  0
  3  4  2  0
  4  5  1  0
  5  6  1  0
  6  7  2  0
  6  8  1  0
  8  9  2  0
  9 10  1  0
 10 11  1  0
 11 12  1  0
 12 13  2  0
 13 14  1  0
 14 15  2  0
 15 16  1  0
 16 17  3  0
 15 18  1  0
 18 19  2  0
 19 12  1  0
 11 20  2  0
 20  8  1  0
  5 21  2  0
 21 22  1  0
 22 23  1  0
 23 24  1  0
 22 25  2  0
 25  3  1  0
 25 26  1  0
 26 27  1  0
M  END
> <assay_chembl_id>
CHEMBL1010706

> <assay_description>
Cytotoxicity against human LNCAP cells after 48 hrs by SRB assay

> <document_journal>
J Med Chem

> <molecule_chembl_id>
CHEMBL517098

> <standard_value>
15

> <IC50_uM>
0.015

> <Activity>
Yes

> <Canonical_Smiles>
COc1cc(C(=O)c2csc(-c3ccc(C#N)cc3)n2)cc(OC)c1OC

$$$$

  SciTegic03142313312D

 28 30  0  0  0  0            999 V2000
    3.8983   -0.7459    0.0000 C   0  0
    2.6003   -1.4977    0.0000 O   0  0
    1.2990   -0.7500    0.0000 C   0  0
    1.2990    0.7500    0.0000 C   0  0
    0.0000    1.5000    0.0000 C   0  0
   -0.0031    3.0008    0.0000 C   0  0
    1.2946    3.7531    0.0000 O   0  0
   -1.3039    3.7494    0.0000 C   0  0
   -1.4470    5.2297    0.0000 C   0  0
   -2.9153    5.5365    0.0000 S   0  0
   -3.6607    4.2349    0.0000 C   0  0
   -5.1527    4.0728    0.0000 C   0  0
   -6.1233    5.2100    0.0000 C   0  0
   -7.5981    4.9362    0.0000 C   0  0
   -8.0984    3.5221    0.0000 C   0  0
   -9.5735    3.2452    0.0000 N   0  3
  -10.0718    1.8304    0.0000 O   0  0
  -10.5499    4.3839    0.0000 O   0  5
   -7.1240    2.3818    0.0000 C   0  0
   -5.6491    2.6555    0.0000 C   0  0
   -2.6532    3.1236    0.0000 N   0  0
   -1.2990    0.7500    0.0000 C   0  0
   -1.2990   -0.7500    0.0000 C   0  0
   -2.6003   -1.4978    0.0000 O   0  0
   -3.8983   -0.7459    0.0000 C   0  0
    0.0000   -1.5000    0.0000 C   0  0
    0.0031   -3.0008    0.0000 O   0  0
    1.3032   -3.7490    0.0000 C   0  0
  1  2  1  0
  2  3  1  0
  3  4  2  0
  4  5  1  0
  5  6  1  0
  6  7  2  0
  6  8  1  0
  8  9  2  0
  9 10  1  0
 10 11  1  0
 11 12  1  0
 12 13  2  0
 13 14  1  0
 14 15  2  0
 15 16  1  0
 16 17  2  0
 16 18  1  0
 15 19  1  0
 19 20  2  0
 20 12  1  0
 11 21  2  0
 21  8  1  0
  5 22  2  0
 22 23  1  0
 23 24  1  0
 24 25  1  0
 23 26  2  0
 26  3  1  0
 26 27  1  0
 27 28  1  0
M  CHG  2  16   1  18  -1
M  END
> <assay_chembl_id>
CHEMBL1010706

> <assay_description>
Cytotoxicity against human LNCAP cells after 48 hrs by SRB assay

> <document_journal>
J Med Chem

> <molecule_chembl_id>
CHEMBL459774

> <standard_value>
39

> <IC50_uM>
0.039

> <Activity>
Yes

> <Canonical_Smiles>
COc1cc(C(=O)c2csc(-c3ccc([N+](=O)[O-])cc3)n2)cc(OC)c1OC

$$$$

  SciTegic03142313312D

 29 31  0  0  0  0            999 V2000
    3.8983   -0.7459    0.0000 C   0  0
    2.6003   -1.4977    0.0000 O   0  0
    1.2990   -0.7500    0.0000 C   0  0
    1.2990    0.7500    0.0000 C   0  0
    0.0000    1.5000    0.0000 C   0  0
   -1.2990    0.7500    0.0000 C   0  0
   -2.5987    1.5004    0.0000 C   0  0
   -2.7390    2.9810    0.0000 N   0  0
   -4.2067    3.2905    0.0000 C   0  0
   -4.8211    4.6570    0.0000 C   0  0
   -3.9435    5.8735    0.0000 O   0  0
   -6.3142    4.8094    0.0000 C   0  0
   -6.9313    6.1766    0.0000 C   0  0
   -8.4239    6.3258    0.0000 C   0  0
   -9.0384    7.6950    0.0000 O   0  0
   -8.1612    8.9118    0.0000 C   0  0
   -9.2994    5.1078    0.0000 C   0  0
  -10.7931    5.2541    0.0000 O   0  0
  -11.6669    4.0348    0.0000 C   0  0
   -8.6823    3.7406    0.0000 C   0  0
   -9.5558    2.5202    0.0000 O   0  0
   -8.9369    1.1538    0.0000 C   0  0
   -7.1898    3.5914    0.0000 C   0  0
   -4.9546    1.9903    0.0000 C   0  0
   -3.9492    0.8772    0.0000 S   0  0
   -1.2990   -0.7500    0.0000 C   0  0
    0.0000   -1.5000    0.0000 C   0  0
   -0.0031   -3.0008    0.0000 O   0  0
   -1.3032   -3.7490    0.0000 C   0  0
  1  2  1  0
  2  3  1  0
  3  4  2  0
  4  5  1  0
  5  6  2  0
  6  7  1  0
  7  8  2  0
  8  9  1  0
  9 10  1  0
 10 11  2  0
 10 12  1  0
 12 13  2  0
 13 14  1  0
 14 15  1  0
 15 16  1  0
 14 17  2  0
 17 18  1  0
 18 19  1  0
 17 20  1  0
 20 21  1  0
 21 22  1  0
 20 23  2  0
 23 12  1  0
  9 24  2  0
 24 25  1  0
 25  7  1  0
  6 26  1  0
 26 27  2  0
 27  3  1  0
 27 28  1  0
 28 29  1  0
M  END
> <assay_chembl_id>
CHEMBL1010706

> <assay_description>
Cytotoxicity against human LNCAP cells after 48 hrs by SRB assay

> <document_journal>
J Med Chem

> <molecule_chembl_id>
CHEMBL471410

> <standard_value>
38

> <IC50_uM>
0.038

> <Activity>
Yes

> <Canonical_Smiles>
COc1ccc(-c2nc(C(=O)c3cc(OC)c(OC)c(OC)c3)cs2)cc1OC

$$$$

  SciTegic03142313312D

 26 28  0  0  0  0            999 V2000
    3.8983   -0.7459    0.0000 C   0  0
    2.6003   -1.4977    0.0000 O   0  0
    1.2990   -0.7500    0.0000 C   0  0
    1.2990    0.7500    0.0000 C   0  0
    0.0000    1.5000    0.0000 C   0  0
   -0.0031    3.0008    0.0000 C   0  0
    1.2946    3.7531    0.0000 O   0  0
   -1.3039    3.7494    0.0000 C   0  0
   -1.4470    5.2297    0.0000 C   0  0
   -2.9153    5.5365    0.0000 S   0  0
   -3.6607    4.2349    0.0000 C   0  0
   -5.1527    4.0728    0.0000 C   0  0
   -6.1233    5.2100    0.0000 C   0  0
   -7.5981    4.9362    0.0000 C   0  0
   -8.0984    3.5221    0.0000 C   0  0
   -9.5732    3.2484    0.0000 F   0  0
   -7.1240    2.3818    0.0000 C   0  0
   -5.6491    2.6555    0.0000 C   0  0
   -2.6532    3.1236    0.0000 N   0  0
   -1.2990    0.7500    0.0000 C   0  0
   -1.2990   -0.7500    0.0000 C   0  0
   -2.6003   -1.4978    0.0000 O   0  0
   -3.8983   -0.7459    0.0000 C   0  0
    0.0000   -1.5000    0.0000 C   0  0
    0.0031   -3.0008    0.0000 O   0  0
    1.3032   -3.7490    0.0000 C   0  0
  1  2  1  0
  2  3  1  0
  3  4  2  0
  4  5  1  0
  5  6  1  0
  6  7  2  0
  6  8  1  0
  8  9  2  0
  9 10  1  0
 10 11  1  0
 11 12  1  0
 12 13  2  0
 13 14  1  0
 14 15  2  0
 15 16  1  0
 15 17  1  0
 17 18  2  0
 18 12  1  0
 11 19  2  0
 19  8  1  0
  5 20  2  0
 20 21  1  0
 21 22  1  0
 22 23  1  0
 21 24  2  0
 24  3  1  0
 24 25  1  0
 25 26  1  0
M  END
> <assay_chembl_id>
CHEMBL1010706

> <assay_description>
Cytotoxicity against human LNCAP cells after 48 hrs by SRB assay

> <document_journal>
J Med Chem

> <molecule_chembl_id>
CHEMBL513054

> <standard_value>
6

> <IC50_uM>
0.006

> <Activity>
Yes

> <Canonical_Smiles>
COc1cc(C(=O)c2csc(-c3ccc(F)cc3)n2)cc(OC)c1OC

$$$$

  SciTegic03142313312D

 26 28  0  0  0  0            999 V2000
    3.8983   -0.7459    0.0000 C   0  0
    2.6003   -1.4977    0.0000 O   0  0
    1.2990   -0.7500    0.0000 C   0  0
    1.2990    0.7500    0.0000 C   0  0
    0.0000    1.5000    0.0000 C   0  0
   -0.0031    3.0008    0.0000 C   0  0
    1.2946    3.7531    0.0000 O   0  0
   -1.3039    3.7494    0.0000 C   0  0
   -1.4470    5.2297    0.0000 C   0  0
   -2.9153    5.5365    0.0000 S   0  0
   -3.6607    4.2349    0.0000 C   0  0
   -5.1527    4.0728    0.0000 C   0  0
   -6.1233    5.2100    0.0000 C   0  0
   -7.5981    4.9362    0.0000 C   0  0
   -8.0984    3.5221    0.0000 C   0  0
   -7.1240    2.3818    0.0000 C   0  0
   -7.6243    0.9677    0.0000 F   0  0
   -5.6491    2.6555    0.0000 C   0  0
   -2.6532    3.1236    0.0000 N   0  0
   -1.2990    0.7500    0.0000 C   0  0
   -1.2990   -0.7500    0.0000 C   0  0
   -2.6003   -1.4978    0.0000 O   0  0
   -3.8983   -0.7459    0.0000 C   0  0
    0.0000   -1.5000    0.0000 C   0  0
    0.0031   -3.0008    0.0000 O   0  0
    1.3032   -3.7490    0.0000 C   0  0
  1  2  1  0
  2  3  1  0
  3  4  2  0
  4  5  1  0
  5  6  1  0
  6  7  2  0
  6  8  1  0
  8  9  2  0
  9 10  1  0
 10 11  1  0
 11 12  1  0
 12 13  2  0
 13 14  1  0
 14 15  2  0
 15 16  1  0
 16 17  1  0
 16 18  2  0
 18 12  1  0
 11 19  2  0
 19  8  1  0
  5 20  2  0
 20 21  1  0
 21 22  1  0
 22 23  1  0
 21 24  2  0
 24  3  1  0
 24 25  1  0
 25 26  1  0
M  END
> <assay_chembl_id>
CHEMBL1010706

> <assay_description>
Cytotoxicity against human LNCAP cells after 48 hrs by SRB assay

> <document_journal>
J Med Chem

> <molecule_chembl_id>
CHEMBL471208

> <standard_value>
11

> <IC50_uM>
0.011

> <Activity>
Yes

> <Canonical_Smiles>
COc1cc(C(=O)c2csc(-c3cccc(F)c3)n2)cc(OC)c1OC

$$$$

  SciTegic03142313312D

 26 28  0  0  0  0            999 V2000
    3.8983   -0.7459    0.0000 C   0  0
    2.6003   -1.4977    0.0000 O   0  0
    1.2990   -0.7500    0.0000 C   0  0
    1.2990    0.7500    0.0000 C   0  0
    0.0000    1.5000    0.0000 C   0  0
   -0.0031    3.0008    0.0000 C   0  0
    1.2946    3.7531    0.0000 O   0  0
   -1.3039    3.7494    0.0000 C   0  0
   -1.4470    5.2297    0.0000 C   0  0
   -2.9153    5.5365    0.0000 S   0  0
   -3.6607    4.2349    0.0000 C   0  0
   -5.1527    4.0728    0.0000 C   0  0
   -5.6492    2.6555    0.0000 C   0  0
   -7.1240    2.3818    0.0000 C   0  0
   -8.0984    3.5221    0.0000 C   0  0
   -7.5981    4.9362    0.0000 C   0  0
   -6.1233    5.2100    0.0000 C   0  0
   -5.6225    6.6239    0.0000 F   0  0
   -2.6532    3.1236    0.0000 N   0  0
   -1.2990    0.7500    0.0000 C   0  0
   -1.2990   -0.7500    0.0000 C   0  0
   -2.6003   -1.4978    0.0000 O   0  0
   -3.8983   -0.7459    0.0000 C   0  0
    0.0000   -1.5000    0.0000 C   0  0
    0.0031   -3.0008    0.0000 O   0  0
    1.3032   -3.7490    0.0000 C   0  0
  1  2  1  0
  2  3  1  0
  3  4  2  0
  4  5  1  0
  5  6  1  0
  6  7  2  0
  6  8  1  0
  8  9  2  0
  9 10  1  0
 10 11  1  0
 11 12  1  0
 12 13  2  0
 13 14  1  0
 14 15  2  0
 15 16  1  0
 16 17  2  0
 17 12  1  0
 17 18  1  0
 11 19  2  0
 19  8  1  0
  5 20  2  0
 20 21  1  0
 21 22  1  0
 22 23  1  0
 21 24  2  0
 24  3  1  0
 24 25  1  0
 25 26  1  0
M  END
> <assay_chembl_id>
CHEMBL1010706

> <assay_description>
Cytotoxicity against human LNCAP cells after 48 hrs by SRB assay

> <document_journal>
J Med Chem

> <molecule_chembl_id>
CHEMBL472454

> <standard_value>
53

> <IC50_uM>
0.053

> <Activity>
Yes

> <Canonical_Smiles>
COc1cc(C(=O)c2csc(-c3ccccc3F)n2)cc(OC)c1OC

$$$$

  SciTegic03142313312D

 26 28  0  0  0  0            999 V2000
    3.8983   -0.7459    0.0000 C   0  0
    2.6003   -1.4977    0.0000 O   0  0
    1.2990   -0.7500    0.0000 C   0  0
    1.2990    0.7500    0.0000 C   0  0
    0.0000    1.5000    0.0000 C   0  0
   -0.0031    3.0008    0.0000 C   0  0
    1.2946    3.7531    0.0000 O   0  0
   -1.3039    3.7494    0.0000 C   0  0
   -1.4470    5.2297    0.0000 C   0  0
   -2.9153    5.5365    0.0000 S   0  0
   -3.6607    4.2349    0.0000 C   0  0
   -5.1527    4.0728    0.0000 C   0  0
   -6.1233    5.2100    0.0000 C   0  0
   -7.5981    4.9362    0.0000 C   0  0
   -8.0984    3.5221    0.0000 C   0  0
   -9.5732    3.2484    0.0000 C   0  0
   -7.1240    2.3818    0.0000 C   0  0
   -5.6491    2.6555    0.0000 C   0  0
   -2.6532    3.1236    0.0000 N   0  0
   -1.2990    0.7500    0.0000 C   0  0
   -1.2990   -0.7500    0.0000 C   0  0
   -2.6003   -1.4978    0.0000 O   0  0
   -3.8983   -0.7459    0.0000 C   0  0
    0.0000   -1.5000    0.0000 C   0  0
    0.0031   -3.0008    0.0000 O   0  0
    1.3032   -3.7490    0.0000 C   0  0
  1  2  1  0
  2  3  1  0
  3  4  2  0
  4  5  1  0
  5  6  1  0
  6  7  2  0
  6  8  1  0
  8  9  2  0
  9 10  1  0
 10 11  1  0
 11 12  1  0
 12 13  2  0
 13 14  1  0
 14 15  2  0
 15 16  1  0
 15 17  1  0
 17 18  2  0
 18 12  1  0
 11 19  2  0
 19  8  1  0
  5 20  2  0
 20 21  1  0
 21 22  1  0
 22 23  1  0
 21 24  2  0
 24  3  1  0
 24 25  1  0
 25 26  1  0
M  END
> <assay_chembl_id>
CHEMBL1010706

> <assay_description>
Cytotoxicity against human LNCAP cells after 48 hrs by SRB assay

> <document_journal>
J Med Chem

> <molecule_chembl_id>
CHEMBL499424

> <standard_value>
6

> <IC50_uM>
0.006

> <Activity>
Yes

> <Canonical_Smiles>
COc1cc(C(=O)c2csc(-c3ccc(C)cc3)n2)cc(OC)c1OC

$$$$

  SciTegic03142313312D

 23 25  0  0  0  0            999 V2000
    2.5951   -3.0031    0.0000 C   0  0
    2.5973   -1.5031    0.0000 O   0  0
    1.2990   -0.7500    0.0000 C   0  0
    1.2990    0.7500    0.0000 C   0  0
    0.0000    1.5000    0.0000 C   0  0
   -0.0031    3.0008    0.0000 O   0  0
   -1.3032    3.7490    0.0000 C   0  0
   -1.2990    0.7500    0.0000 C   0  0
   -1.2990   -0.7500    0.0000 C   0  0
   -2.5972   -1.5031    0.0000 C   0  0
   -3.8976   -0.7554    0.0000 O   0  0
   -2.5951   -3.0039    0.0000 C   0  0
   -3.8056   -3.8680    0.0000 C   0  0
   -3.3371   -5.2929    0.0000 S   0  0
   -1.8371   -5.2877    0.0000 C   0  0
   -0.9508   -6.4988    0.0000 C   0  0
   -1.4503   -7.9079    0.0000 C   0  0
   -0.4759   -9.0482    0.0000 C   0  0
    0.9989   -8.7745    0.0000 C   0  0
    1.4993   -7.3604    0.0000 C   0  0
    0.5248   -6.2201    0.0000 C   0  0
   -1.3786   -3.8595    0.0000 N   0  0
    0.0000   -1.5000    0.0000 C   0  0
  1  2  1  0
  2  3  1  0
  3  4  2  0
  4  5  1  0
  5  6  1  0
  6  7  1  0
  5  8  2  0
  8  9  1  0
  9 10  1  0
 10 11  2  0
 10 12  1  0
 12 13  2  0
 13 14  1  0
 14 15  1  0
 15 16  1  0
 16 17  2  0
 17 18  1  0
 18 19  2  0
 19 20  1  0
 20 21  2  0
 21 16  1  0
 15 22  2  0
 22 12  1  0
  9 23  2  0
 23  3  1  0
M  END
> <assay_chembl_id>
CHEMBL1010706

> <assay_description>
Cytotoxicity against human LNCAP cells after 48 hrs by SRB assay

> <document_journal>
J Med Chem

> <molecule_chembl_id>
CHEMBL472248

> <standard_value>
323

> <IC50_uM>
0.323

> <Activity>
Yes

> <Canonical_Smiles>
COc1cc(OC)cc(C(=O)c2csc(-c3ccccc3)n2)c1

$$$$

  SciTegic03142313312D

 25 27  0  0  0  0            999 V2000
    3.8983   -0.7459    0.0000 C   0  0
    2.6003   -1.4977    0.0000 O   0  0
    1.2990   -0.7500    0.0000 C   0  0
    1.2990    0.7500    0.0000 C   0  0
    0.0000    1.5000    0.0000 C   0  0
   -0.0031    3.0008    0.0000 C   0  0
    1.2946    3.7531    0.0000 O   0  0
   -1.3039    3.7494    0.0000 C   0  0
   -1.4470    5.2297    0.0000 C   0  0
   -2.9153    5.5365    0.0000 S   0  0
   -3.6607    4.2349    0.0000 C   0  0
   -5.1527    4.0728    0.0000 C   0  0
   -6.1233    5.2100    0.0000 C   0  0
   -7.5981    4.9362    0.0000 C   0  0
   -8.0984    3.5221    0.0000 C   0  0
   -7.1240    2.3818    0.0000 C   0  0
   -5.6491    2.6555    0.0000 C   0  0
   -2.6532    3.1236    0.0000 N   0  0
   -1.2990    0.7500    0.0000 C   0  0
   -1.2990   -0.7500    0.0000 C   0  0
   -2.6003   -1.4978    0.0000 O   0  0
   -3.8983   -0.7459    0.0000 C   0  0
    0.0000   -1.5000    0.0000 C   0  0
    0.0031   -3.0008    0.0000 O   0  0
    1.3032   -3.7490    0.0000 C   0  0
  1  2  1  0
  2  3  1  0
  3  4  2  0
  4  5  1  0
  5  6  1  0
  6  7  2  0
  6  8  1  0
  8  9  2  0
  9 10  1  0
 10 11  1  0
 11 12  1  0
 12 13  2  0
 13 14  1  0
 14 15  2  0
 15 16  1  0
 16 17  2  0
 17 12  1  0
 11 18  2  0
 18  8  1  0
  5 19  2  0
 19 20  1  0
 20 21  1  0
 21 22  1  0
 20 23  2  0
 23  3  1  0
 23 24  1  0
 24 25  1  0
M  END
> <assay_chembl_id>
CHEMBL1010706

> <assay_description>
Cytotoxicity against human LNCAP cells after 48 hrs by SRB assay

> <document_journal>
J Med Chem

> <molecule_chembl_id>
CHEMBL459773

> <standard_value>
28

> <IC50_uM>
0.028

> <Activity>
Yes

> <Canonical_Smiles>
COc1cc(C(=O)c2csc(-c3ccccc3)n2)cc(OC)c1OC

$$$$

  SciTegic03142313312D

 29 31  0  0  1  0            999 V2000
    5.9843   -1.7144    0.0000 C   0  0
    5.6526   -0.2515    0.0000 O   0  0
    4.2194    0.1938    0.0000 C   0  0
    3.1198   -0.8265    0.0000 C   0  0
    1.6852   -0.3846    0.0000 C   0  0
    1.3514    1.0778    0.0000 C   0  0
    2.4522    2.0983    0.0000 C   0  0
    2.1219    3.5623    0.0000 O   0  0
    3.2233    4.5806    0.0000 C   0  0
    3.8856    1.6562    0.0000 C   0  0
    4.9879    2.6747    0.0000 O   0  0
    6.4206    2.2306    0.0000 C   0  0
    0.0000    1.7286    0.0000 C   0  0
    0.3330    3.1926    0.0000 C   0  0
   -0.6022    4.3653    0.0000 C   0  0
   -2.1022    4.3653    0.0000 C   0  0
   -2.7515    5.7206    0.0000 O   0  0
   -1.9048    6.9588    0.0000 C   0  0
   -3.0375    3.1925    0.0000 C   0  0
   -4.4999    3.5263    0.0000 O   0  0
   -2.7037    1.7302    0.0000 C   0  0
   -1.3515    1.0777    0.0000 C   0  0
   -1.6852   -0.3847    0.0000 C   0  0  1  0  0  0
   -3.1510   -0.7161    0.0000 N   0  0
   -4.1703    0.3855    0.0000 C   0  0
   -3.7257    1.8181    0.0000 C   0  0
   -5.6334    0.0548    0.0000 O   0  0
   -0.7500   -1.5574    0.0000 C   0  0
    0.7500   -1.5574    0.0000 C   0  0
  1  2  1  0
  2  3  1  0
  3  4  2  0
  4  5  1  0
  5  6  2  0
  6  7  1  0
  7  8  1  0
  8  9  1  0
  7 10  2  0
 10  3  1  0
 10 11  1  0
 11 12  1  0
  6 13  1  0
 13 14  2  0
 14 15  1  0
 15 16  2  0
 16 17  1  0
 17 18  1  0
 16 19  1  0
 19 20  2  0
 19 21  1  0
 21 22  2  0
 22 13  1  0
 22 23  1  0
 23 24  1  6
 24 25  1  0
 25 26  1  0
 25 27  2  0
 23 28  1  0
 28 29  1  0
 29  5  1  0
M  END
> <assay_chembl_id>
CHEMBL1010706

> <assay_description>
Cytotoxicity against human LNCAP cells after 48 hrs by SRB assay

> <document_journal>
J Med Chem

> <molecule_chembl_id>
CHEMBL107

> <standard_value>
16

> <IC50_uM>
0.016

> <Activity>
Yes

> <Canonical_Smiles>
COc1cc2c(c(OC)c1OC)-c1ccc(OC)c(=O)cc1[C@@H](NC(C)=O)CC2

$$$$

  SciTegic03142313312D

 25 24  0  0  0  0            999 V2000
    0.0007    0.0004    0.0000 C   0  0
    1.3000    0.7500    0.0000 C   0  0
    2.6000    0.0000    0.0000 N   0  0
    3.9000    0.7500    0.0000 C   0  0
    5.2000    0.0000    0.0000 C   0  0
    6.5000    0.7500    0.0000 C   0  0
    7.7999    0.0000    0.0000 C   0  0
    9.0999    0.7500    0.0000 N   0  0
   10.3999    0.0000    0.0000 C   0  0
   11.6999    0.7500    0.0000 C   0  0
   12.9999    0.0000    0.0000 C   0  0
   14.2999    0.7500    0.0000 C   0  0
   15.5999    0.0000    0.0000 N   0  0
   16.8999    0.7500    0.0000 C   0  0
   18.1999    0.0000    0.0000 C   0  0
   19.4998    0.7500    0.0000 C   0  0
   20.7998    0.0000    0.0000 C   0  0
   22.0998    0.7500    0.0000 N   0  0
   23.3998    0.0000    0.0000 C   0  0
   24.6998    0.7500    0.0000 C   0  0
   25.9998    0.0000    0.0000 C   0  0
   27.2998    0.7500    0.0000 C   0  0
   28.5998    0.0000    0.0000 N   0  0
   29.8998    0.7500    0.0000 C   0  0
   31.1990    0.0004    0.0000 C   0  0
  1  2  1  0
  2  3  1  0
  3  4  1  0
  4  5  1  0
  5  6  1  0
  6  7  1  0
  7  8  1  0
  8  9  1  0
  9 10  1  0
 10 11  1  0
 11 12  1  0
 12 13  1  0
 13 14  1  0
 14 15  1  0
 15 16  1  0
 16 17  1  0
 17 18  1  0
 18 19  1  0
 19 20  1  0
 20 21  1  0
 21 22  1  0
 22 23  1  0
 23 24  1  0
 24 25  1  0
M  END
> <assay_chembl_id>
CHEMBL1025152

> <assay_description>
Antitumor activity against human LNCAP cells

> <document_journal>
J Med Chem

> <molecule_chembl_id>
CHEMBL551489

> <standard_value>
100

> <IC50_uM>
0.1

> <Activity>
Yes

> <Canonical_Smiles>
CCNCCCCNCCCCNCCCCNCCCCNCC

$$$$

  SciTegic03142313312D

 25 24  0  0  0  0            999 V2000
    0.0007    0.0004    0.0000 C   0  0
    1.3000    0.7500    0.0000 C   0  0
    2.6000    0.0000    0.0000 N   0  0
    3.9000    0.7500    0.0000 C   0  0
    5.2000    0.0000    0.0000 C   0  0
    6.5000    0.7500    0.0000 C   0  0
    6.5014    2.2508    0.0000 C   0  0
    7.8014    3.0008    0.0000 N   0  0
    7.8028    4.5016    0.0000 C   0  0
    9.1028    5.2516    0.0000 C   0  0
    9.1042    6.7525    0.0000 C   0  0
   10.4042    7.5025    0.0000 C   0  0
   10.4056    9.0033    0.0000 N   0  0
   11.7056    9.7533    0.0000 C   0  0
   11.7070   11.2541    0.0000 C   0  0
   13.0070   12.0041    0.0000 C   0  0
   13.0085   13.5049    0.0000 C   0  0
   14.3085   14.2549    0.0000 N   0  0
   14.3099   15.7558    0.0000 C   0  0
   15.6099   16.5058    0.0000 C   0  0
   15.6113   18.0066    0.0000 C   0  0
   16.9113   18.7566    0.0000 C   0  0
   16.9127   20.2574    0.0000 N   0  0
   18.2127   21.0074    0.0000 C   0  0
   18.2141   22.5074    0.0000 C   0  0
  1  2  1  0
  2  3  1  0
  3  4  1  0
  4  5  1  0
  5  6  2  0
  6  7  1  0
  7  8  1  0
  8  9  1  0
  9 10  1  0
 10 11  1  0
 11 12  1  0
 12 13  1  0
 13 14  1  0
 14 15  1  0
 15 16  1  0
 16 17  1  0
 17 18  1  0
 18 19  1  0
 19 20  1  0
 20 21  1  0
 21 22  1  0
 22 23  1  0
 23 24  1  0
 24 25  1  0
M  END
> <assay_chembl_id>
CHEMBL1025152

> <assay_description>
Antitumor activity against human LNCAP cells

> <document_journal>
J Med Chem

> <molecule_chembl_id>
CHEMBL1237414

> <standard_value>
80

> <IC50_uM>
0.08

> <Activity>
Yes

> <RemovedSalts>
HCl
HCl
HCl
HCl
HCl

> <Canonical_Smiles>
CCNC/C=C\CNCCCCNCCCCNCCCCNCC.Cl.Cl.Cl.Cl.Cl

$$$$

  SciTegic03142313312D

 40 39  0  0  0  0            999 V2000
    0.0007    0.0004    0.0000 C   0  0
    1.3000    0.7500    0.0000 C   0  0
    2.6000    0.0000    0.0000 N   0  0
    3.9000    0.7500    0.0000 C   0  0
    5.2000    0.0000    0.0000 C   0  0
    6.5000    0.7500    0.0000 C   0  0
    7.7999    0.0000    0.0000 C   0  0
    9.0999    0.7500    0.0000 N   0  0
   10.3999    0.0000    0.0000 C   0  0
   11.6999    0.7500    0.0000 C   0  0
   12.9999    0.0000    0.0000 C   0  0
   14.2999    0.7500    0.0000 C   0  0
   15.5999    0.0000    0.0000 N   0  0
   16.8999    0.7500    0.0000 C   0  0
   18.1999    0.0000    0.0000 C   0  0
   19.4998    0.7500    0.0000 C   0  0
   20.7998    0.0000    0.0000 C   0  0
   22.0998    0.7500    0.0000 N   0  0
   23.3998    0.0000    0.0000 C   0  0
   24.6998    0.7500    0.0000 C   0  0
   25.9998    0.0000    0.0000 C   0  0
   27.2998    0.7500    0.0000 C   0  0
   28.5998    0.0000    0.0000 N   0  0
   29.8998    0.7500    0.0000 C   0  0
   31.1998    0.0000    0.0000 C   0  0
   32.4998    0.7500    0.0000 C   0  0
   33.7997    0.0000    0.0000 C   0  0
   35.0997    0.7500    0.0000 N   0  0
   36.3997    0.0000    0.0000 C   0  0
   37.6997    0.7500    0.0000 C   0  0
   38.9997    0.0000    0.0000 C   0  0
   40.2997    0.7500    0.0000 C   0  0
   41.5997    0.0000    0.0000 N   0  0
   42.8997    0.7500    0.0000 C   0  0
   44.1997    0.0000    0.0000 C   0  0
   45.4997    0.7500    0.0000 C   0  0
   46.7996    0.0000    0.0000 C   0  0
   48.0996    0.7500    0.0000 N   0  0
   49.3996    0.0000    0.0000 C   0  0
   50.6989    0.7496    0.0000 C   0  0
  1  2  1  0
  2  3  1  0
  3  4  1  0
  4  5  1  0
  5  6  1  0
  6  7  1  0
  7  8  1  0
  8  9  1  0
  9 10  1  0
 10 11  1  0
 11 12  1  0
 12 13  1  0
 13 14  1  0
 14 15  1  0
 15 16  1  0
 16 17  1  0
 17 18  1  0
 18 19  1  0
 19 20  1  0
 20 21  2  0
 21 22  1  0
 22 23  1  0
 23 24  1  0
 24 25  1  0
 25 26  1  0
 26 27  1  0
 27 28  1  0
 28 29  1  0
 29 30  1  0
 30 31  1  0
 31 32  1  0
 32 33  1  0
 33 34  1  0
 34 35  1  0
 35 36  1  0
 36 37  1  0
 37 38  1  0
 38 39  1  0
 39 40  1  0
M  END
> <assay_chembl_id>
CHEMBL1025152

> <assay_description>
Antitumor activity against human LNCAP cells

> <document_journal>
J Med Chem

> <molecule_chembl_id>
CHEMBL264287

> <standard_value>
130

> <IC50_uM>
0.13

> <Activity>
Yes

> <Canonical_Smiles>
CCNCCCCNCCCCNCCCCNC/C=C/CNCCCCNCCCCNCCCCNCC

$$$$

  SciTegic03142313312D

 50 49  0  0  0  0            999 V2000
    0.0007    0.0004    0.0000 C   0  0
    1.3000    0.7500    0.0000 C   0  0
    2.6000    0.0000    0.0000 N   0  0
    3.9000    0.7500    0.0000 C   0  0
    5.2000    0.0000    0.0000 C   0  0
    6.5000    0.7500    0.0000 C   0  0
    7.7999    0.0000    0.0000 C   0  0
    9.0999    0.7500    0.0000 N   0  0
   10.3999    0.0000    0.0000 C   0  0
   11.6999    0.7500    0.0000 C   0  0
   12.9999    0.0000    0.0000 C   0  0
   14.2999    0.7500    0.0000 C   0  0
   15.5999    0.0000    0.0000 N   0  0
   16.8999    0.7500    0.0000 C   0  0
   18.1999    0.0000    0.0000 C   0  0
   19.4998    0.7500    0.0000 C   0  0
   20.7998    0.0000    0.0000 C   0  0
   22.0998    0.7500    0.0000 N   0  0
   23.3998    0.0000    0.0000 C   0  0
   24.6998    0.7500    0.0000 C   0  0
   25.9998    0.0000    0.0000 C   0  0
   27.2998    0.7500    0.0000 C   0  0
   28.5998    0.0000    0.0000 N   0  0
   29.8998    0.7500    0.0000 C   0  0
   31.1998    0.0000    0.0000 C   0  0
   32.4998    0.7500    0.0000 C   0  0
   33.7997    0.0000    0.0000 C   0  0
   35.0997    0.7500    0.0000 N   0  0
   36.3997    0.0000    0.0000 C   0  0
   37.6997    0.7500    0.0000 C   0  0
   38.9997    0.0000    0.0000 C   0  0
   40.2997    0.7500    0.0000 C   0  0
   41.5997    0.0000    0.0000 N   0  0
   42.8997    0.7500    0.0000 C   0  0
   44.1997    0.0000    0.0000 C   0  0
   45.4997    0.7500    0.0000 C   0  0
   46.7996    0.0000    0.0000 C   0  0
   48.0996    0.7500    0.0000 N   0  0
   49.3996    0.0000    0.0000 C   0  0
   50.6996    0.7500    0.0000 C   0  0
   51.9996    0.0000    0.0000 C   0  0
   53.2996    0.7500    0.0000 C   0  0
   54.5996    0.0000    0.0000 N   0  0
   55.8996    0.7500    0.0000 C   0  0
   57.1996    0.0000    0.0000 C   0  0
   58.4996    0.7500    0.0000 C   0  0
   59.7995    0.0000    0.0000 C   0  0
   61.0995    0.7500    0.0000 N   0  0
   62.3995    0.0000    0.0000 C   0  0
   63.6988    0.7496    0.0000 C   0  0
  1  2  1  0
  2  3  1  0
  3  4  1  0
  4  5  1  0
  5  6  1  0
  6  7  1  0
  7  8  1  0
  8  9  1  0
  9 10  1  0
 10 11  1  0
 11 12  1  0
 12 13  1  0
 13 14  1  0
 14 15  1  0
 15 16  1  0
 16 17  1  0
 17 18  1  0
 18 19  1  0
 19 20  1  0
 20 21  1  0
 21 22  1  0
 22 23  1  0
 23 24  1  0
 24 25  1  0
 25 26  2  0
 26 27  1  0
 27 28  1  0
 28 29  1  0
 29 30  1  0
 30 31  1  0
 31 32  1  0
 32 33  1  0
 33 34  1  0
 34 35  1  0
 35 36  1  0
 36 37  1  0
 37 38  1  0
 38 39  1  0
 39 40  1  0
 40 41  1  0
 41 42  1  0
 42 43  1  0
 43 44  1  0
 44 45  1  0
 45 46  1  0
 46 47  1  0
 47 48  1  0
 48 49  1  0
 49 50  1  0
M  END
> <assay_chembl_id>
CHEMBL1025152

> <assay_description>
Antitumor activity against human LNCAP cells

> <document_journal>
J Med Chem

> <molecule_chembl_id>
CHEMBL226102

> <standard_value>
90

> <IC50_uM>
0.09

> <Activity>
Yes

> <Canonical_Smiles>
CCNCCCCNCCCCNCCCCNCCCCNC/C=C/CNCCCCNCCCCNCCCCNCCCCNCC

$$$$

  SciTegic03142313312D

 25 24  0  0  0  0            999 V2000
    0.0007    0.0004    0.0000 C   0  0
    1.3000    0.7500    0.0000 C   0  0
    2.6000    0.0000    0.0000 N   0  0
    3.9000    0.7500    0.0000 C   0  0
    5.2000    0.0000    0.0000 C   0  0
    6.5000    0.7500    0.0000 C   0  0
    6.5014    2.2508    0.0000 C   0  0
    7.8014    3.0008    0.0000 N   0  0
    7.8028    4.5016    0.0000 C   0  0
    9.1028    5.2516    0.0000 C   0  0
    9.1042    6.7525    0.0000 C   0  0
   10.4042    7.5025    0.0000 C   0  0
   10.4056    9.0033    0.0000 N   0  0
   11.7056    9.7533    0.0000 C   0  0
   11.7070   11.2541    0.0000 C   0  0
   13.0070   12.0041    0.0000 C   0  0
   13.0085   13.5049    0.0000 C   0  0
   14.3085   14.2549    0.0000 N   0  0
   14.3099   15.7558    0.0000 C   0  0
   15.6099   16.5058    0.0000 C   0  0
   15.6113   18.0066    0.0000 C   0  0
   14.3127   18.7591    0.0000 C   0  0
   14.3142   20.2599    0.0000 N   0  0
   13.0156   21.0124    0.0000 C   0  0
   13.0170   22.5124    0.0000 C   0  0
  1  2  1  0
  2  3  1  0
  3  4  1  0
  4  5  1  0
  5  6  2  0
  6  7  1  0
  7  8  1  0
  8  9  1  0
  9 10  1  0
 10 11  1  0
 11 12  1  0
 12 13  1  0
 13 14  1  0
 14 15  1  0
 15 16  1  0
 16 17  1  0
 17 18  1  0
 18 19  1  0
 19 20  1  0
 20 21  2  0
 21 22  1  0
 22 23  1  0
 23 24  1  0
 24 25  1  0
M  END
> <assay_chembl_id>
CHEMBL1025152

> <assay_description>
Antitumor activity against human LNCAP cells

> <document_journal>
J Med Chem

> <molecule_chembl_id>
CHEMBL1237413

> <standard_value>
140

> <IC50_uM>
0.14

> <Activity>
Yes

> <RemovedSalts>
HCl
HCl
HCl
HCl
HCl

> <Canonical_Smiles>
CCNC/C=C\CNCCCCNCCCCNC/C=C\CNCC.Cl.Cl.Cl.Cl.Cl

$$$$

  SciTegic03142313312D

 42 43  0  0  1  0            999 V2000
   -6.2838    8.6217    0.0000 C   0  0
   -6.2887    7.1217    0.0000 C   0  0
   -4.9919    6.3662    0.0000 C   0  0
   -4.9968    4.8654    0.0000 N   0  0
   -3.7000    4.1100    0.0000 C   0  0
   -3.7000    2.6000    0.0000 C   0  0
   -5.0100    1.8400    0.0000 C   0  0
   -5.0100    0.3400    0.0000 C   0  0  1  0  0  0
   -6.3055   -0.4161    0.0000 C   0  0
   -3.7000   -0.4000    0.0000 C   0  0
   -3.2700   -2.0600    0.0000 C   0  0  2  0  0  0
   -4.1920   -3.2317    0.0000 O   0  0
   -5.6765   -3.0162    0.0000 C   0  0
   -1.0900   -1.9100    0.0000 C   0  0  2  0  0  0
   -0.7453   -0.4501    0.0000 O   0  0
    0.2000   -2.6700    0.0000 C   0  0  1  0  0  0
    0.1950   -4.1700    0.0000 C   0  0
    1.5100   -1.9100    0.0000 C   0  0
    2.8100   -2.6700    0.0000 C   0  0
    2.8075   -4.1700    0.0000 C   0  0
    4.1200   -1.9100    0.0000 C   0  0  2  0  0  0
    5.4195   -2.6606    0.0000 O   0  0
    5.4202   -4.1615    0.0000 C   0  0
    4.1213   -4.9116    0.0000 N   0  0
    6.7191   -4.9117    0.0000 O   0  0
    4.1200   -0.4000    0.0000 C   0  0  1  0  0  0
    2.6430   -0.1342    0.0000 O   0  0
    1.6740   -1.2792    0.0000 C   0  0
    5.4200    0.3400    0.0000 C   0  0
    5.4200    1.8400    0.0000 C   0  0
    4.1200    2.6000    0.0000 C   0  0
    2.8100    1.8400    0.0000 C   0  0
    2.8075    0.3400    0.0000 C   0  0
    1.5100    2.6000    0.0000 C   0  0
    1.5125    4.1000    0.0000 O   0  0
    0.2000    1.8400    0.0000 N   0  0
   -1.0900    2.6000    0.0000 C   0  0
   -1.0900    4.1100    0.0000 C   0  0
   -2.4000    4.8600    0.0000 C   0  0
   -2.4025    6.3600    0.0000 O   0  0
   -2.4000    1.8400    0.0000 C   0  0
   -2.4025    0.3400    0.0000 O   0  0
  1  2  2  0
  2  3  1  0
  3  4  1  0
  4  5  1  0
  5  6  2  0
  6  7  1  0
  7  8  1  0
  8  9  1  6
  8 10  1  0
 10 11  1  0
 11 12  1  1
 12 13  1  0
 11 14  1  0
 14 15  1  6
 14 16  1  0
 16 17  1  6
 16 18  1  0
 18 19  2  0
 19 20  1  0
 19 21  1  0
 21 22  1  1
 22 23  1  0
 23 24  1  0
 23 25  2  0
 21 26  1  0
 26 27  1  1
 27 28  1  0
 26 29  1  0
 29 30  2  0
 30 31  1  0
 31 32  2  0
 32 33  1  0
 32 34  1  0
 34 35  2  0
 34 36  1  0
 36 37  1  0
 37 38  2  0
 38 39  1  0
 39  5  1  0
 39 40  2  0
 37 41  1  0
 41  6  1  0
 41 42  2  0
M  END
> <assay_chembl_id>
CHEMBL1026072

> <assay_description>
Antiproliferative activity against human LNCAP cells after 72 to 144 hrs by cyquant DNA dye method

> <document_journal>
J Med Chem

> <molecule_chembl_id>
CHEMBL109480

> <standard_value>
82

> <IC50_uM>
0.082

> <Activity>
Yes

> <Canonical_Smiles>
C=CCNC1=C2C[C@@H](C)C[C@H](OC)[C@H](O)[C@@H](C)/C=C(\C)[C@H](OC(N)=O)[C@@H](OC)/C=C\C=C(/C)C(=O)NC(=CC1=O)C2=O

$$$$

  SciTegic03142313312D

 30 33  0  0  1  0            999 V2000
    3.1882    2.6402    0.0000 C   0  0
    2.7248    1.2135    0.0000 C   0  0
    3.6065    0.0000    0.0000 C   0  0
    2.7248   -1.2135    0.0000 N   0  0
    3.1884   -2.6409    0.0000 C   0  0
    4.6235   -3.0601    0.0000 C   0  0
    4.9782   -4.5176    0.0000 C   0  0
    3.8933   -5.5535    0.0000 C   0  0
    4.2512   -7.0111    0.0000 C   0  0
    3.1682   -8.0489    0.0000 N   0  0
    5.6914   -7.4305    0.0000 O   0  0
    2.4538   -5.1320    0.0000 C   0  0
    1.3662   -6.1662    0.0000 N   0  0
   -0.0735   -5.7424    0.0000 C   0  0  1  0  0  0
   -1.1621   -6.7745    0.0000 C   0  0
   -2.6001   -6.3480    0.0000 C   0  0
   -2.9498   -4.8893    0.0000 C   0  0  2  0  0  0
   -4.3879   -4.4628    0.0000 O   0  0
   -1.8614   -3.8572    0.0000 C   0  0
   -0.4233   -4.2837    0.0000 C   0  0
    2.0991   -3.6745    0.0000 C   0  0
    1.2990   -0.7500    0.0000 C   0  0
    1.2990    0.7500    0.0000 C   0  0
    0.0000    1.5000    0.0000 C   0  0
    0.0000    3.0000    0.0000 O   0  0
   -1.2990    0.7500    0.0000 C   0  0
   -1.2990   -0.7500    0.0000 C   0  0
   -2.5800    0.0304    0.0000 C   0  0
   -1.2638   -2.2496    0.0000 C   0  0
    0.0000   -1.5000    0.0000 C   0  0
  1  2  1  0
  2  3  2  0
  3  4  1  0
  4  5  1  0
  5  6  2  0
  6  7  1  0
  7  8  2  0
  8  9  1  0
  9 10  1  0
  9 11  2  0
  8 12  1  0
 12 13  1  0
 14 13  1  1
 14 15  1  0
 15 16  1  0
 16 17  1  0
 17 18  1  6
 17 19  1  0
 19 20  1  0
 20 14  1  0
 12 21  2  0
 21  5  1  0
  4 22  1  0
 22 23  2  0
 23  2  1  0
 23 24  1  0
 24 25  2  0
 24 26  1  0
 26 27  1  0
 27 28  1  0
 27 29  1  0
 27 30  1  0
 30 22  1  0
M  END
> <assay_chembl_id>
CHEMBL1026072

> <assay_description>
Antiproliferative activity against human LNCAP cells after 72 to 144 hrs by cyquant DNA dye method

> <document_journal>
J Med Chem

> <molecule_chembl_id>
CHEMBL563608

> <standard_value>
4

> <IC50_uM>
0.004

> <Activity>
Yes

> <Canonical_Smiles>
Cc1cn(-c2ccc(C(N)=O)c(N[C@H]3CC[C@H](O)CC3)c2)c2c1C(=O)CC(C)(C)C2

$$$$

  SciTegic03142313312D

 33 36  0  0  1  0            999 V2000
    2.5800    0.0305    0.0000 C   0  0
    1.2990   -0.7500    0.0000 C   0  0
    1.2638   -2.2496    0.0000 C   0  0
    1.2990    0.7500    0.0000 C   0  0
    0.0000    1.5000    0.0000 C   0  0
    0.0000    3.0000    0.0000 O   0  0
   -1.2990    0.7500    0.0000 C   0  0
   -2.7248    1.2135    0.0000 C   0  0
   -3.1875    2.6385    0.0000 C   0  0
   -2.1843    3.7537    0.0000 F   0  0
   -4.6548    2.9502    0.0000 F   0  0
   -3.6514    4.0650    0.0000 F   0  0
   -3.6065    0.0000    0.0000 N   0  0
   -2.7248   -1.2135    0.0000 N   0  0
   -3.1884   -2.6409    0.0000 C   0  0
   -4.6234   -3.0602    0.0000 C   0  0
   -4.9781   -4.5176    0.0000 C   0  0
   -3.8933   -5.5536    0.0000 C   0  0
   -4.2512   -7.0111    0.0000 C   0  0
   -3.1681   -8.0489    0.0000 N   0  0
   -5.6913   -7.4306    0.0000 O   0  0
   -2.4537   -5.1320    0.0000 C   0  0
   -1.3661   -6.1662    0.0000 N   0  0
    0.0736   -5.7424    0.0000 C   0  0  1  0  0  0
    1.1621   -6.7745    0.0000 C   0  0
    2.6002   -6.3480    0.0000 C   0  0
    2.9498   -4.8893    0.0000 C   0  0  2  0  0  0
    4.3879   -4.4628    0.0000 O   0  0
    1.8614   -3.8571    0.0000 C   0  0
    0.4233   -4.2837    0.0000 C   0  0
   -2.0990   -3.6745    0.0000 C   0  0
   -1.2990   -0.7500    0.0000 C   0  0
    0.0000   -1.5000    0.0000 C   0  0
  1  2  1  0
  2  3  1  0
  2  4  1  0
  4  5  1  0
  5  6  2  0
  5  7  1  0
  7  8  1  0
  8  9  1  0
  9 10  1  0
  9 11  1  0
  9 12  1  0
  8 13  2  0
 13 14  1  0
 14 15  1  0
 15 16  2  0
 16 17  1  0
 17 18  2  0
 18 19  1  0
 19 20  1  0
 19 21  2  0
 18 22  1  0
 22 23  1  0
 24 23  1  6
 24 25  1  0
 25 26  1  0
 26 27  1  0
 27 28  1  1
 27 29  1  0
 29 30  1  0
 30 24  1  0
 22 31  2  0
 31 15  1  0
 14 32  1  0
 32  7  2  0
 32 33  1  0
 33  2  1  0
M  END
> <assay_chembl_id>
CHEMBL1026072

> <assay_description>
Antiproliferative activity against human LNCAP cells after 72 to 144 hrs by cyquant DNA dye method

> <document_journal>
J Med Chem

> <molecule_chembl_id>
CHEMBL560895

> <standard_value>
3

> <IC50_uM>
0.003

> <Activity>
Yes

> <Canonical_Smiles>
CC1(C)CC(=O)c2c(C(F)(F)F)nn(-c3ccc(C(N)=O)c(N[C@H]4CC[C@H](O)CC4)c3)c2C1

$$$$

  SciTegic03142313312D

 37 40  0  0  1  0            999 V2000
    2.5800    0.0305    0.0000 C   0  0
    1.2990   -0.7500    0.0000 C   0  0
    1.2638   -2.2496    0.0000 C   0  0
    1.2990    0.7500    0.0000 C   0  0
    0.0000    1.5000    0.0000 C   0  0
    0.0000    3.0000    0.0000 O   0  0
   -1.2990    0.7500    0.0000 C   0  0
   -2.7248    1.2135    0.0000 C   0  0
   -3.1875    2.6385    0.0000 C   0  0
   -2.1843    3.7537    0.0000 F   0  0
   -4.6548    2.9502    0.0000 F   0  0
   -3.6514    4.0650    0.0000 F   0  0
   -3.6065    0.0000    0.0000 N   0  0
   -2.7248   -1.2135    0.0000 N   0  0
   -3.1884   -2.6409    0.0000 C   0  0
   -4.6234   -3.0602    0.0000 C   0  0
   -4.9781   -4.5176    0.0000 C   0  0
   -3.8933   -5.5536    0.0000 C   0  0
   -4.2512   -7.0111    0.0000 C   0  0
   -3.1681   -8.0489    0.0000 N   0  0
   -5.6913   -7.4306    0.0000 O   0  0
   -2.4537   -5.1320    0.0000 C   0  0
   -1.3661   -6.1662    0.0000 N   0  0
    0.0736   -5.7424    0.0000 C   0  0  1  0  0  0
    1.1621   -6.7745    0.0000 C   0  0
    2.6002   -6.3480    0.0000 C   0  0
    2.9498   -4.8893    0.0000 C   0  0  2  0  0  0
    4.3896   -4.4655    0.0000 O   0  0
    5.4771   -5.4997    0.0000 C   0  0
    5.1250   -6.9578    0.0000 O   0  0
    6.9169   -5.0759    0.0000 C   0  0
    8.0038   -6.1096    0.0000 N   0  0
    1.8614   -3.8571    0.0000 C   0  0
    0.4233   -4.2837    0.0000 C   0  0
   -2.0990   -3.6745    0.0000 C   0  0
   -1.2990   -0.7500    0.0000 C   0  0
    0.0000   -1.5000    0.0000 C   0  0
  1  2  1  0
  2  3  1  0
  2  4  1  0
  4  5  1  0
  5  6  2  0
  5  7  1  0
  7  8  1  0
  8  9  1  0
  9 10  1  0
  9 11  1  0
  9 12  1  0
  8 13  2  0
 13 14  1  0
 14 15  1  0
 15 16  2  0
 16 17  1  0
 17 18  2  0
 18 19  1  0
 19 20  1  0
 19 21  2  0
 18 22  1  0
 22 23  1  0
 24 23  1  6
 24 25  1  0
 25 26  1  0
 26 27  1  0
 27 28  1  1
 28 29  1  0
 29 30  2  0
 29 31  1  0
 31 32  1  0
 27 33  1  0
 33 34  1  0
 34 24  1  0
 22 35  2  0
 35 15  1  0
 14 36  1  0
 36  7  2  0
 36 37  1  0
 37  2  1  0
M  END
> <assay_chembl_id>
CHEMBL1026072

> <assay_description>
Antiproliferative activity against human LNCAP cells after 72 to 144 hrs by cyquant DNA dye method

> <document_journal>
J Med Chem

> <molecule_chembl_id>
CHEMBL553939

> <standard_value>
31

> <IC50_uM>
0.031

> <Activity>
Yes

> <RemovedSalts>
CS(=O)(=O)O

> <Canonical_Smiles>
CC1(C)CC(=O)c2c(C(F)(F)F)nn(-c3ccc(C(N)=O)c(N[C@H]4CC[C@H](OC(=O)CN)CC4)c3)c2C1.CS(=O)(=O)O

$$$$

  SciTegic03142313312D

 35 40  0  0  0  0            999 V2000
    3.8919   -5.2525    0.0000 O   0  0
    3.8943   -3.7525    0.0000 C   0  0
    5.1945   -3.0045    0.0000 C   0  0
    5.1969   -1.5045    0.0000 C   0  0
    3.8991   -0.7525    0.0000 C   0  0
    2.5987   -1.5004    0.0000 C   0  0
    1.2990   -0.7500    0.0000 C   0  0
    1.2990    0.7500    0.0000 N   0  0
    0.0000    1.5000    0.0000 C   0  0
    0.0000    3.0008    0.0000 N   0  0
    1.2978    3.7529    0.0000 C   0  0
    1.2954    5.2529    0.0000 C   0  0
   -0.0048    6.0009    0.0000 O   0  0
   -1.3026    5.2488    0.0000 C   0  0
   -1.3002    3.7488    0.0000 C   0  0
   -1.2990    0.7500    0.0000 C   0  0
   -2.7248    1.2135    0.0000 C   0  0
   -3.6065    0.0000    0.0000 N   0  0
   -2.7248   -1.2135    0.0000 N   0  0
   -3.1884   -2.6409    0.0000 C   0  0
   -4.6234   -3.0602    0.0000 C   0  0
   -4.9781   -4.5176    0.0000 C   0  0
   -3.8933   -5.5536    0.0000 N   0  0
   -4.2452   -7.0125    0.0000 C   0  0
   -3.1582   -8.0475    0.0000 C   0  0
   -3.5078   -9.5062    0.0000 C   0  0
   -2.4194  -10.5384    0.0000 C   0  0
   -0.9813  -10.1118    0.0000 C   0  0
   -0.6316   -8.6531    0.0000 N   0  0
   -1.7201   -7.6210    0.0000 C   0  0
   -2.4537   -5.1320    0.0000 C   0  0
   -2.0990   -3.6745    0.0000 C   0  0
   -1.2990   -0.7500    0.0000 C   0  0
    0.0000   -1.5000    0.0000 N   0  0
    2.5965   -3.0004    0.0000 C   0  0
  1  2  1  0
  2  3  2  0
  3  4  1  0
  4  5  2  0
  5  6  1  0
  6  7  1  0
  7  8  2  0
  8  9  1  0
  9 10  1  0
 10 11  1  0
 11 12  1  0
 12 13  1  0
 13 14  1  0
 14 15  1  0
 15 10  1  0
  9 16  2  0
 16 17  1  0
 17 18  2  0
 18 19  1  0
 19 20  1  0
 20 21  1  0
 21 22  1  0
 22 23  1  0
 23 24  1  0
 24 25  1  0
 25 26  2  0
 26 27  1  0
 27 28  2  0
 28 29  1  0
 29 30  2  0
 30 25  1  0
 23 31  1  0
 31 32  1  0
 32 20  1  0
 19 33  1  0
 33 16  1  0
 33 34  2  0
 34  7  1  0
  6 35  2  0
 35  2  1  0
M  END
> <assay_chembl_id>
CHEMBL1058641

> <assay_description>
Cytotoxicity against human LNCAP cells after 3 days by MTS assay

> <document_journal>
J Med Chem

> <molecule_chembl_id>
CHEMBL550286

> <standard_value>
53

> <IC50_uM>
0.053

> <Activity>
Yes

> <Canonical_Smiles>
Oc1cccc(-c2nc(N3CCOCC3)c3cnn(C4CCN(Cc5cccnc5)CC4)c3n2)c1

$$$$

  SciTegic03142313312D

 38 43  0  0  0  0            999 V2000
    5.1855   -6.0062    0.0000 C   0  0
    6.4870   -5.2605    0.0000 C   0  0
    7.7833   -6.0152    0.0000 O   0  0
    6.4915   -3.7597    0.0000 N   0  0
    5.1945   -3.0045    0.0000 C   0  0
    5.1969   -1.5045    0.0000 C   0  0
    3.8991   -0.7525    0.0000 C   0  0
    2.5987   -1.5004    0.0000 C   0  0
    1.2990   -0.7500    0.0000 C   0  0
    1.2990    0.7500    0.0000 N   0  0
    0.0000    1.5000    0.0000 C   0  0
    0.0000    3.0008    0.0000 N   0  0
    1.2978    3.7529    0.0000 C   0  0
    1.2954    5.2529    0.0000 C   0  0
   -0.0048    6.0009    0.0000 O   0  0
   -1.3026    5.2488    0.0000 C   0  0
   -1.3002    3.7488    0.0000 C   0  0
   -1.2990    0.7500    0.0000 C   0  0
   -2.7248    1.2135    0.0000 C   0  0
   -3.6065    0.0000    0.0000 N   0  0
   -2.7248   -1.2135    0.0000 N   0  0
   -3.1884   -2.6409    0.0000 C   0  0
   -4.6234   -3.0602    0.0000 C   0  0
   -4.9781   -4.5176    0.0000 C   0  0
   -3.8933   -5.5536    0.0000 N   0  0
   -4.2452   -7.0125    0.0000 C   0  0
   -3.1582   -8.0475    0.0000 C   0  0
   -3.5078   -9.5062    0.0000 C   0  0
   -2.4194  -10.5384    0.0000 C   0  0
   -0.9813  -10.1118    0.0000 C   0  0
   -0.6316   -8.6531    0.0000 N   0  0
   -1.7201   -7.6210    0.0000 C   0  0
   -2.4537   -5.1320    0.0000 C   0  0
   -2.0990   -3.6745    0.0000 C   0  0
   -1.2990   -0.7500    0.0000 C   0  0
    0.0000   -1.5000    0.0000 N   0  0
    2.5965   -3.0004    0.0000 C   0  0
    3.8943   -3.7525    0.0000 C   0  0
  1  2  1  0
  2  3  2  0
  2  4  1  0
  4  5  1  0
  5  6  2  0
  6  7  1  0
  7  8  2  0
  8  9  1  0
  9 10  2  0
 10 11  1  0
 11 12  1  0
 12 13  1  0
 13 14  1  0
 14 15  1  0
 15 16  1  0
 16 17  1  0
 17 12  1  0
 11 18  2  0
 18 19  1  0
 19 20  2  0
 20 21  1  0
 21 22  1  0
 22 23  1  0
 23 24  1  0
 24 25  1  0
 25 26  1  0
 26 27  1  0
 27 28  2  0
 28 29  1  0
 29 30  2  0
 30 31  1  0
 31 32  2  0
 32 27  1  0
 25 33  1  0
 33 34  1  0
 34 22  1  0
 21 35  1  0
 35 18  1  0
 35 36  2  0
 36  9  1  0
  8 37  1  0
 37 38  2  0
 38  5  1  0
M  END
> <assay_chembl_id>
CHEMBL1058641

> <assay_description>
Cytotoxicity against human LNCAP cells after 3 days by MTS assay

> <document_journal>
J Med Chem

> <molecule_chembl_id>
CHEMBL561844

> <standard_value>
66

> <IC50_uM>
0.066

> <Activity>
Yes

> <Canonical_Smiles>
CC(=O)Nc1ccc(-c2nc(N3CCOCC3)c3cnn(C4CCN(Cc5cccnc5)CC4)c3n2)cc1

$$$$

  SciTegic03142313312D

 39 44  0  0  0  0            999 V2000
    7.7795   -7.5156    0.0000 C   0  0
    7.7840   -6.0157    0.0000 O   0  0
    6.4870   -5.2605    0.0000 C   0  0
    5.1855   -6.0062    0.0000 O   0  0
    6.4915   -3.7597    0.0000 N   0  0
    5.1945   -3.0045    0.0000 C   0  0
    5.1969   -1.5045    0.0000 C   0  0
    3.8991   -0.7525    0.0000 C   0  0
    2.5987   -1.5004    0.0000 C   0  0
    1.2990   -0.7500    0.0000 C   0  0
    1.2990    0.7500    0.0000 N   0  0
    0.0000    1.5000    0.0000 C   0  0
    0.0000    3.0008    0.0000 N   0  0
    1.2978    3.7529    0.0000 C   0  0
    1.2954    5.2529    0.0000 C   0  0
   -0.0048    6.0009    0.0000 O   0  0
   -1.3026    5.2488    0.0000 C   0  0
   -1.3002    3.7488    0.0000 C   0  0
   -1.2990    0.7500    0.0000 C   0  0
   -2.7248    1.2135    0.0000 C   0  0
   -3.6065    0.0000    0.0000 N   0  0
   -2.7248   -1.2135    0.0000 N   0  0
   -3.1884   -2.6409    0.0000 C   0  0
   -4.6234   -3.0602    0.0000 C   0  0
   -4.9781   -4.5176    0.0000 C   0  0
   -3.8933   -5.5536    0.0000 N   0  0
   -4.2452   -7.0125    0.0000 C   0  0
   -3.1582   -8.0475    0.0000 C   0  0
   -3.5078   -9.5062    0.0000 C   0  0
   -2.4194  -10.5384    0.0000 C   0  0
   -0.9813  -10.1118    0.0000 C   0  0
   -0.6316   -8.6531    0.0000 N   0  0
   -1.7201   -7.6210    0.0000 C   0  0
   -2.4537   -5.1320    0.0000 C   0  0
   -2.0990   -3.6745    0.0000 C   0  0
   -1.2990   -0.7500    0.0000 C   0  0
    0.0000   -1.5000    0.0000 N   0  0
    2.5965   -3.0004    0.0000 C   0  0
    3.8943   -3.7525    0.0000 C   0  0
  1  2  1  0
  2  3  1  0
  3  4  2  0
  3  5  1  0
  5  6  1  0
  6  7  2  0
  7  8  1  0
  8  9  2  0
  9 10  1  0
 10 11  2  0
 11 12  1  0
 12 13  1  0
 13 14  1  0
 14 15  1  0
 15 16  1  0
 16 17  1  0
 17 18  1  0
 18 13  1  0
 12 19  2  0
 19 20  1  0
 20 21  2  0
 21 22  1  0
 22 23  1  0
 23 24  1  0
 24 25  1  0
 25 26  1  0
 26 27  1  0
 27 28  1  0
 28 29  2  0
 29 30  1  0
 30 31  2  0
 31 32  1  0
 32 33  2  0
 33 28  1  0
 26 34  1  0
 34 35  1  0
 35 23  1  0
 22 36  1  0
 36 19  1  0
 36 37  2  0
 37 10  1  0
  9 38  1  0
 38 39  2  0
 39  6  1  0
M  END
> <assay_chembl_id>
CHEMBL1058641

> <assay_description>
Cytotoxicity against human LNCAP cells after 3 days by MTS assay

> <document_journal>
J Med Chem

> <molecule_chembl_id>
CHEMBL561103

> <standard_value>
213

> <IC50_uM>
0.213

> <Activity>
Yes

> <Canonical_Smiles>
COC(=O)Nc1ccc(-c2nc(N3CCOCC3)c3cnn(C4CCN(Cc5cccnc5)CC4)c3n2)cc1

$$$$

  SciTegic03142313312D

 41 46  0  0  0  0            999 V2000
    5.1855   -6.0062    0.0000 O   0  0
    6.4870   -5.2605    0.0000 C   0  0
    6.4915   -3.7597    0.0000 N   0  0
    5.1945   -3.0045    0.0000 C   0  0
    5.1969   -1.5045    0.0000 C   0  0
    3.8991   -0.7525    0.0000 C   0  0
    2.5987   -1.5004    0.0000 C   0  0
    1.2990   -0.7500    0.0000 C   0  0
    1.2990    0.7500    0.0000 N   0  0
    0.0000    1.5000    0.0000 C   0  0
    0.0000    3.0008    0.0000 N   0  0
    1.2978    3.7529    0.0000 C   0  0
    1.2954    5.2529    0.0000 C   0  0
   -0.0048    6.0009    0.0000 O   0  0
   -1.3026    5.2488    0.0000 C   0  0
   -1.3002    3.7488    0.0000 C   0  0
   -1.2990    0.7500    0.0000 C   0  0
   -2.7248    1.2135    0.0000 C   0  0
   -3.6065    0.0000    0.0000 N   0  0
   -2.7248   -1.2135    0.0000 N   0  0
   -3.1884   -2.6409    0.0000 C   0  0
   -4.6234   -3.0602    0.0000 C   0  0
   -4.9781   -4.5176    0.0000 C   0  0
   -3.8933   -5.5536    0.0000 N   0  0
   -4.2452   -7.0125    0.0000 C   0  0
   -3.1582   -8.0475    0.0000 C   0  0
   -3.5078   -9.5062    0.0000 C   0  0
   -2.4194  -10.5384    0.0000 C   0  0
   -0.9813  -10.1118    0.0000 C   0  0
   -0.6316   -8.6531    0.0000 N   0  0
   -1.7201   -7.6210    0.0000 C   0  0
   -2.4537   -5.1320    0.0000 C   0  0
   -2.0990   -3.6745    0.0000 C   0  0
   -1.2990   -0.7500    0.0000 C   0  0
    0.0000   -1.5000    0.0000 N   0  0
    2.5965   -3.0004    0.0000 C   0  0
    3.8943   -3.7525    0.0000 C   0  0
    7.7840   -6.0157    0.0000 O   0  0
    7.7795   -7.5165    0.0000 C   0  0
    9.0765   -8.2716    0.0000 C   0  0
    9.0720   -9.7716    0.0000 O   0  0
  1  2  2  0
  2  3  1  0
  3  4  1  0
  4  5  2  0
  5  6  1  0
  6  7  2  0
  7  8  1  0
  8  9  2  0
  9 10  1  0
 10 11  1  0
 11 12  1  0
 12 13  1  0
 13 14  1  0
 14 15  1  0
 15 16  1  0
 16 11  1  0
 10 17  2  0
 17 18  1  0
 18 19  2  0
 19 20  1  0
 20 21  1  0
 21 22  1  0
 22 23  1  0
 23 24  1  0
 24 25  1  0
 25 26  1  0
 26 27  2  0
 27 28  1  0
 28 29  2  0
 29 30  1  0
 30 31  2  0
 31 26  1  0
 24 32  1  0
 32 33  1  0
 33 21  1  0
 20 34  1  0
 34 17  1  0
 34 35  2  0
 35  8  1  0
  7 36  1  0
 36 37  2  0
 37  4  1  0
  2 38  1  0
 38 39  1  0
 39 40  1  0
 40 41  1  0
M  END
> <assay_chembl_id>
CHEMBL1058641

> <assay_description>
Cytotoxicity against human LNCAP cells after 3 days by MTS assay

> <document_journal>
J Med Chem

> <molecule_chembl_id>
CHEMBL552532

> <standard_value>
11

> <IC50_uM>
0.011

> <Activity>
Yes

> <Canonical_Smiles>
O=C(Nc1ccc(-c2nc(N3CCOCC3)c3cnn(C4CCN(Cc5cccnc5)CC4)c3n2)cc1)OCCO

$$$$

  SciTegic03142313312D

 39 44  0  0  0  0            999 V2000
    7.7795   -7.5156    0.0000 C   0  0
    7.7840   -6.0157    0.0000 N   0  0
    6.4870   -5.2605    0.0000 C   0  0
    5.1855   -6.0062    0.0000 O   0  0
    6.4915   -3.7597    0.0000 N   0  0
    5.1945   -3.0045    0.0000 C   0  0
    5.1969   -1.5045    0.0000 C   0  0
    3.8991   -0.7525    0.0000 C   0  0
    2.5987   -1.5004    0.0000 C   0  0
    1.2990   -0.7500    0.0000 C   0  0
    1.2990    0.7500    0.0000 N   0  0
    0.0000    1.5000    0.0000 C   0  0
    0.0000    3.0008    0.0000 N   0  0
    1.2978    3.7529    0.0000 C   0  0
    1.2954    5.2529    0.0000 C   0  0
   -0.0048    6.0009    0.0000 O   0  0
   -1.3026    5.2488    0.0000 C   0  0
   -1.3002    3.7488    0.0000 C   0  0
   -1.2990    0.7500    0.0000 C   0  0
   -2.7248    1.2135    0.0000 C   0  0
   -3.6065    0.0000    0.0000 N   0  0
   -2.7248   -1.2135    0.0000 N   0  0
   -3.1884   -2.6409    0.0000 C   0  0
   -4.6234   -3.0602    0.0000 C   0  0
   -4.9781   -4.5176    0.0000 C   0  0
   -3.8933   -5.5536    0.0000 N   0  0
   -4.2452   -7.0125    0.0000 C   0  0
   -3.1582   -8.0475    0.0000 C   0  0
   -3.5078   -9.5062    0.0000 C   0  0
   -2.4194  -10.5384    0.0000 C   0  0
   -0.9813  -10.1118    0.0000 C   0  0
   -0.6316   -8.6531    0.0000 N   0  0
   -1.7201   -7.6210    0.0000 C   0  0
   -2.4537   -5.1320    0.0000 C   0  0
   -2.0990   -3.6745    0.0000 C   0  0
   -1.2990   -0.7500    0.0000 C   0  0
    0.0000   -1.5000    0.0000 N   0  0
    2.5965   -3.0004    0.0000 C   0  0
    3.8943   -3.7525    0.0000 C   0  0
  1  2  1  0
  2  3  1  0
  3  4  2  0
  3  5  1  0
  5  6  1  0
  6  7  2  0
  7  8  1  0
  8  9  2  0
  9 10  1  0
 10 11  2  0
 11 12  1  0
 12 13  1  0
 13 14  1  0
 14 15  1  0
 15 16  1  0
 16 17  1  0
 17 18  1  0
 18 13  1  0
 12 19  2  0
 19 20  1  0
 20 21  2  0
 21 22  1  0
 22 23  1  0
 23 24  1  0
 24 25  1  0
 25 26  1  0
 26 27  1  0
 27 28  1  0
 28 29  2  0
 29 30  1  0
 30 31  2  0
 31 32  1  0
 32 33  2  0
 33 28  1  0
 26 34  1  0
 34 35  1  0
 35 23  1  0
 22 36  1  0
 36 19  1  0
 36 37  2  0
 37 10  1  0
  9 38  1  0
 38 39  2  0
 39  6  1  0
M  END
> <assay_chembl_id>
CHEMBL1058641

> <assay_description>
Cytotoxicity against human LNCAP cells after 3 days by MTS assay

> <document_journal>
J Med Chem

> <molecule_chembl_id>
CHEMBL551440

> <standard_value>
3

> <IC50_uM>
0.003

> <Activity>
Yes

> <Canonical_Smiles>
CNC(=O)Nc1ccc(-c2nc(N3CCOCC3)c3cnn(C4CCN(Cc5cccnc5)CC4)c3n2)cc1

$$$$

  SciTegic03142313312D

 39 44  0  0  0  0            999 V2000
    7.7795   -7.5156    0.0000 C   0  0
    7.7840   -6.0157    0.0000 N   0  0
    6.4870   -5.2605    0.0000 C   0  0
    5.1855   -6.0062    0.0000 O   0  0
    6.4915   -3.7597    0.0000 N   0  0
    5.1945   -3.0045    0.0000 C   0  0
    5.1969   -1.5045    0.0000 C   0  0
    3.8991   -0.7525    0.0000 C   0  0
    2.5987   -1.5004    0.0000 C   0  0
    1.2990   -0.7500    0.0000 C   0  0
    1.2990    0.7500    0.0000 N   0  0
    0.0000    1.5000    0.0000 C   0  0
    0.0000    3.0008    0.0000 N   0  0
    1.2978    3.7529    0.0000 C   0  0
    1.2954    5.2529    0.0000 C   0  0
   -0.0048    6.0009    0.0000 O   0  0
   -1.3026    5.2488    0.0000 C   0  0
   -1.3002    3.7488    0.0000 C   0  0
   -1.2990    0.7500    0.0000 C   0  0
   -2.7248    1.2135    0.0000 C   0  0
   -3.6065    0.0000    0.0000 N   0  0
   -2.7248   -1.2135    0.0000 N   0  0
   -3.1884   -2.6409    0.0000 C   0  0
   -4.6234   -3.0602    0.0000 C   0  0
   -4.9781   -4.5176    0.0000 C   0  0
   -3.8933   -5.5536    0.0000 N   0  0
   -4.2452   -7.0125    0.0000 C   0  0
   -3.1582   -8.0475    0.0000 C   0  0
   -3.5078   -9.5062    0.0000 C   0  0
   -2.4194  -10.5384    0.0000 C   0  0
   -0.9813  -10.1118    0.0000 C   0  0
   -0.6316   -8.6531    0.0000 C   0  0
   -1.7201   -7.6210    0.0000 C   0  0
   -2.4537   -5.1320    0.0000 C   0  0
   -2.0990   -3.6745    0.0000 C   0  0
   -1.2990   -0.7500    0.0000 C   0  0
    0.0000   -1.5000    0.0000 N   0  0
    2.5965   -3.0004    0.0000 C   0  0
    3.8943   -3.7525    0.0000 C   0  0
  1  2  1  0
  2  3  1  0
  3  4  2  0
  3  5  1  0
  5  6  1  0
  6  7  2  0
  7  8  1  0
  8  9  2  0
  9 10  1  0
 10 11  2  0
 11 12  1  0
 12 13  1  0
 13 14  1  0
 14 15  1  0
 15 16  1  0
 16 17  1  0
 17 18  1  0
 18 13  1  0
 12 19  2  0
 19 20  1  0
 20 21  2  0
 21 22  1  0
 22 23  1  0
 23 24  1  0
 24 25  1  0
 25 26  1  0
 26 27  1  0
 27 28  1  0
 28 29  2  0
 29 30  1  0
 30 31  2  0
 31 32  1  0
 32 33  2  0
 33 28  1  0
 26 34  1  0
 34 35  1  0
 35 23  1  0
 22 36  1  0
 36 19  1  0
 36 37  2  0
 37 10  1  0
  9 38  1  0
 38 39  2  0
 39  6  1  0
M  END
> <assay_chembl_id>
CHEMBL1058641

> <assay_description>
Cytotoxicity against human LNCAP cells after 3 days by MTS assay

> <document_journal>
J Med Chem

> <molecule_chembl_id>
CHEMBL550972

> <standard_value>
1.5

> <IC50_uM>
0.0015

> <Activity>
Yes

> <Canonical_Smiles>
CNC(=O)Nc1ccc(-c2nc(N3CCOCC3)c3cnn(C4CCN(Cc5ccccc5)CC4)c3n2)cc1

$$$$

  SciTegic03142313312D

 33 37  0  0  0  0            999 V2000
    7.7795   -7.5156    0.0000 C   0  0
    7.7840   -6.0157    0.0000 N   0  0
    6.4870   -5.2605    0.0000 C   0  0
    5.1855   -6.0062    0.0000 O   0  0
    6.4915   -3.7597    0.0000 N   0  0
    5.1945   -3.0045    0.0000 C   0  0
    5.1969   -1.5045    0.0000 C   0  0
    3.8991   -0.7525    0.0000 C   0  0
    2.5987   -1.5004    0.0000 C   0  0
    1.2990   -0.7500    0.0000 C   0  0
    1.2990    0.7500    0.0000 N   0  0
    0.0000    1.5000    0.0000 C   0  0
    0.0000    3.0008    0.0000 N   0  0
    1.2978    3.7529    0.0000 C   0  0
    1.2954    5.2529    0.0000 C   0  0
   -0.0048    6.0009    0.0000 O   0  0
   -1.3026    5.2488    0.0000 C   0  0
   -1.3002    3.7488    0.0000 C   0  0
   -1.2990    0.7500    0.0000 C   0  0
   -2.7248    1.2135    0.0000 C   0  0
   -3.6065    0.0000    0.0000 N   0  0
   -2.7248   -1.2135    0.0000 N   0  0
   -3.1884   -2.6409    0.0000 C   0  0
   -4.6234   -3.0602    0.0000 C   0  0
   -4.9781   -4.5176    0.0000 C   0  0
   -3.8933   -5.5536    0.0000 N   0  0
   -4.2480   -7.0110    0.0000 C   0  0
   -2.4537   -5.1320    0.0000 C   0  0
   -2.0990   -3.6745    0.0000 C   0  0
   -1.2990   -0.7500    0.0000 C   0  0
    0.0000   -1.5000    0.0000 N   0  0
    2.5965   -3.0004    0.0000 C   0  0
    3.8943   -3.7525    0.0000 C   0  0
  1  2  1  0
  2  3  1  0
  3  4  2  0
  3  5  1  0
  5  6  1  0
  6  7  2  0
  7  8  1  0
  8  9  2  0
  9 10  1  0
 10 11  2  0
 11 12  1  0
 12 13  1  0
 13 14  1  0
 14 15  1  0
 15 16  1  0
 16 17  1  0
 17 18  1  0
 18 13  1  0
 12 19  2  0
 19 20  1  0
 20 21  2  0
 21 22  1  0
 22 23  1  0
 23 24  1  0
 24 25  1  0
 25 26  1  0
 26 27  1  0
 26 28  1  0
 28 29  1  0
 29 23  1  0
 22 30  1  0
 30 19  1  0
 30 31  2  0
 31 10  1  0
  9 32  1  0
 32 33  2  0
 33  6  1  0
M  END
> <assay_chembl_id>
CHEMBL1058641

> <assay_description>
Cytotoxicity against human LNCAP cells after 3 days by MTS assay

> <document_journal>
J Med Chem

> <molecule_chembl_id>
CHEMBL564099

> <standard_value>
733

> <IC50_uM>
0.733

> <Activity>
Yes

> <Canonical_Smiles>
CNC(=O)Nc1ccc(-c2nc(N3CCOCC3)c3cnn(C4CCN(C)CC4)c3n2)cc1

$$$$

  SciTegic03142313312D

 35 39  0  0  0  0            999 V2000
    7.7795   -7.5156    0.0000 C   0  0
    7.7840   -6.0157    0.0000 N   0  0
    6.4870   -5.2605    0.0000 C   0  0
    5.1855   -6.0062    0.0000 O   0  0
    6.4915   -3.7597    0.0000 N   0  0
    5.1945   -3.0045    0.0000 C   0  0
    5.1969   -1.5045    0.0000 C   0  0
    3.8991   -0.7525    0.0000 C   0  0
    2.5987   -1.5004    0.0000 C   0  0
    1.2990   -0.7500    0.0000 C   0  0
    1.2990    0.7500    0.0000 N   0  0
    0.0000    1.5000    0.0000 C   0  0
    0.0000    3.0008    0.0000 N   0  0
    1.2978    3.7529    0.0000 C   0  0
    1.2954    5.2529    0.0000 C   0  0
   -0.0048    6.0009    0.0000 O   0  0
   -1.3026    5.2488    0.0000 C   0  0
   -1.3002    3.7488    0.0000 C   0  0
   -1.2990    0.7500    0.0000 C   0  0
   -2.7248    1.2135    0.0000 C   0  0
   -3.6065    0.0000    0.0000 N   0  0
   -2.7248   -1.2135    0.0000 N   0  0
   -3.1884   -2.6409    0.0000 C   0  0
   -4.6234   -3.0602    0.0000 C   0  0
   -4.9781   -4.5176    0.0000 C   0  0
   -3.8933   -5.5536    0.0000 N   0  0
   -4.2452   -7.0125    0.0000 C   0  0
   -5.6840   -7.4366    0.0000 C   0  0
   -3.1588   -8.0469    0.0000 O   0  0
   -2.4537   -5.1320    0.0000 C   0  0
   -2.0990   -3.6745    0.0000 C   0  0
   -1.2990   -0.7500    0.0000 C   0  0
    0.0000   -1.5000    0.0000 N   0  0
    2.5965   -3.0004    0.0000 C   0  0
    3.8943   -3.7525    0.0000 C   0  0
  1  2  1  0
  2  3  1  0
  3  4  2  0
  3  5  1  0
  5  6  1  0
  6  7  2  0
  7  8  1  0
  8  9  2  0
  9 10  1  0
 10 11  2  0
 11 12  1  0
 12 13  1  0
 13 14  1  0
 14 15  1  0
 15 16  1  0
 16 17  1  0
 17 18  1  0
 18 13  1  0
 12 19  2  0
 19 20  1  0
 20 21  2  0
 21 22  1  0
 22 23  1  0
 23 24  1  0
 24 25  1  0
 25 26  1  0
 26 27  1  0
 27 28  1  0
 27 29  2  0
 26 30  1  0
 30 31  1  0
 31 23  1  0
 22 32  1  0
 32 19  1  0
 32 33  2  0
 33 10  1  0
  9 34  1  0
 34 35  2  0
 35  6  1  0
M  END
> <assay_chembl_id>
CHEMBL1058641

> <assay_description>
Cytotoxicity against human LNCAP cells after 3 days by MTS assay

> <document_journal>
J Med Chem

> <molecule_chembl_id>
CHEMBL562365

> <standard_value>
817

> <IC50_uM>
0.817

> <Activity>
Yes

> <Canonical_Smiles>
CNC(=O)Nc1ccc(-c2nc(N3CCOCC3)c3cnn(C4CCN(C(C)=O)CC4)c3n2)cc1

$$$$

  SciTegic03142313312D

 37 41  0  0  0  0            999 V2000
    7.7795   -7.5156    0.0000 C   0  0
    7.7840   -6.0157    0.0000 N   0  0
    6.4870   -5.2605    0.0000 C   0  0
    5.1855   -6.0062    0.0000 O   0  0
    6.4915   -3.7597    0.0000 N   0  0
    5.1945   -3.0045    0.0000 C   0  0
    5.1969   -1.5045    0.0000 C   0  0
    3.8991   -0.7525    0.0000 C   0  0
    2.5987   -1.5004    0.0000 C   0  0
    1.2990   -0.7500    0.0000 C   0  0
    1.2990    0.7500    0.0000 N   0  0
    0.0000    1.5000    0.0000 C   0  0
    0.0000    3.0008    0.0000 N   0  0
    1.2978    3.7529    0.0000 C   0  0
    1.2954    5.2529    0.0000 C   0  0
   -0.0048    6.0009    0.0000 O   0  0
   -1.3026    5.2488    0.0000 C   0  0
   -1.3002    3.7488    0.0000 C   0  0
   -1.2990    0.7500    0.0000 C   0  0
   -2.7248    1.2135    0.0000 C   0  0
   -3.6065    0.0000    0.0000 N   0  0
   -2.7248   -1.2135    0.0000 N   0  0
   -3.1884   -2.6409    0.0000 C   0  0
   -4.6234   -3.0602    0.0000 C   0  0
   -4.9781   -4.5176    0.0000 C   0  0
   -3.8933   -5.5536    0.0000 N   0  0
   -4.2452   -7.0125    0.0000 C   0  0
   -5.6840   -7.4366    0.0000 O   0  0
   -3.1582   -8.0475    0.0000 N   0  0
   -3.5099   -9.5057    0.0000 C   0  0
   -1.7194   -7.6234    0.0000 C   0  0
   -2.4537   -5.1320    0.0000 C   0  0
   -2.0990   -3.6745    0.0000 C   0  0
   -1.2990   -0.7500    0.0000 C   0  0
    0.0000   -1.5000    0.0000 N   0  0
    2.5965   -3.0004    0.0000 C   0  0
    3.8943   -3.7525    0.0000 C   0  0
  1  2  1  0
  2  3  1  0
  3  4  2  0
  3  5  1  0
  5  6  1  0
  6  7  2  0
  7  8  1  0
  8  9  2  0
  9 10  1  0
 10 11  2  0
 11 12  1  0
 12 13  1  0
 13 14  1  0
 14 15  1  0
 15 16  1  0
 16 17  1  0
 17 18  1  0
 18 13  1  0
 12 19  2  0
 19 20  1  0
 20 21  2  0
 21 22  1  0
 22 23  1  0
 23 24  1  0
 24 25  1  0
 25 26  1  0
 26 27  1  0
 27 28  2  0
 27 29  1  0
 29 30  1  0
 29 31  1  0
 26 32  1  0
 32 33  1  0
 33 23  1  0
 22 34  1  0
 34 19  1  0
 34 35  2  0
 35 10  1  0
  9 36  1  0
 36 37  2  0
 37  6  1  0
M  END
> <assay_chembl_id>
CHEMBL1058641

> <assay_description>
Cytotoxicity against human LNCAP cells after 3 days by MTS assay

> <document_journal>
J Med Chem

> <molecule_chembl_id>
CHEMBL562439

> <standard_value>
197

> <IC50_uM>
0.197

> <Activity>
Yes

> <Canonical_Smiles>
CNC(=O)Nc1ccc(-c2nc(N3CCOCC3)c3cnn(C4CCN(C(=O)N(C)C)CC4)c3n2)cc1

$$$$

  SciTegic03142313312D

 36 40  0  0  0  0            999 V2000
    7.7795   -7.5156    0.0000 C   0  0
    7.7840   -6.0157    0.0000 N   0  0
    6.4870   -5.2605    0.0000 C   0  0
    5.1855   -6.0062    0.0000 O   0  0
    6.4915   -3.7597    0.0000 N   0  0
    5.1945   -3.0045    0.0000 C   0  0
    5.1969   -1.5045    0.0000 C   0  0
    3.8991   -0.7525    0.0000 C   0  0
    2.5987   -1.5004    0.0000 C   0  0
    1.2990   -0.7500    0.0000 C   0  0
    1.2990    0.7500    0.0000 N   0  0
    0.0000    1.5000    0.0000 C   0  0
    0.0000    3.0008    0.0000 N   0  0
    1.2978    3.7529    0.0000 C   0  0
    1.2954    5.2529    0.0000 C   0  0
   -0.0048    6.0009    0.0000 O   0  0
   -1.3026    5.2488    0.0000 C   0  0
   -1.3002    3.7488    0.0000 C   0  0
   -1.2990    0.7500    0.0000 C   0  0
   -2.7248    1.2135    0.0000 C   0  0
   -3.6065    0.0000    0.0000 N   0  0
   -2.7248   -1.2135    0.0000 N   0  0
   -3.1884   -2.6409    0.0000 C   0  0
   -4.6234   -3.0602    0.0000 C   0  0
   -4.9781   -4.5176    0.0000 C   0  0
   -3.8933   -5.5536    0.0000 N   0  0
   -4.2452   -7.0125    0.0000 C   0  0
   -5.6840   -7.4366    0.0000 O   0  0
   -3.1582   -8.0475    0.0000 O   0  0
   -3.5099   -9.5057    0.0000 C   0  0
   -2.4537   -5.1320    0.0000 C   0  0
   -2.0990   -3.6745    0.0000 C   0  0
   -1.2990   -0.7500    0.0000 C   0  0
    0.0000   -1.5000    0.0000 N   0  0
    2.5965   -3.0004    0.0000 C   0  0
    3.8943   -3.7525    0.0000 C   0  0
  1  2  1  0
  2  3  1  0
  3  4  2  0
  3  5  1  0
  5  6  1  0
  6  7  2  0
  7  8  1  0
  8  9  2  0
  9 10  1  0
 10 11  2  0
 11 12  1  0
 12 13  1  0
 13 14  1  0
 14 15  1  0
 15 16  1  0
 16 17  1  0
 17 18  1  0
 18 13  1  0
 12 19  2  0
 19 20  1  0
 20 21  2  0
 21 22  1  0
 22 23  1  0
 23 24  1  0
 24 25  1  0
 25 26  1  0
 26 27  1  0
 27 28  2  0
 27 29  1  0
 29 30  1  0
 26 31  1  0
 31 32  1  0
 32 23  1  0
 22 33  1  0
 33 19  1  0
 33 34  2  0
 34 10  1  0
  9 35  1  0
 35 36  2  0
 36  6  1  0
M  END
> <assay_chembl_id>
CHEMBL1058641

> <assay_description>
Cytotoxicity against human LNCAP cells after 3 days by MTS assay

> <document_journal>
J Med Chem

> <molecule_chembl_id>
CHEMBL563985

> <standard_value>
31

> <IC50_uM>
0.031

> <Activity>
Yes

> <Canonical_Smiles>
CNC(=O)Nc1ccc(-c2nc(N3CCOCC3)c3cnn(C4CCN(C(=O)OC)CC4)c3n2)cc1

$$$$

  SciTegic03142313312D

 45 51  0  0  0  0            999 V2000
    5.1855   -6.0062    0.0000 O   0  0
    6.4870   -5.2605    0.0000 C   0  0
    7.7840   -6.0157    0.0000 N   0  0
    7.7795   -7.5165    0.0000 C   0  0
    9.0747   -8.2731    0.0000 C   0  0
    9.0672   -9.7731    0.0000 C   0  0
    7.7644  -10.5165    0.0000 N   0  0
    6.4691   -9.7600    0.0000 C   0  0
    6.4767   -8.2600    0.0000 C   0  0
    6.4915   -3.7597    0.0000 N   0  0
    5.1945   -3.0045    0.0000 C   0  0
    5.1969   -1.5045    0.0000 C   0  0
    3.8991   -0.7525    0.0000 C   0  0
    2.5987   -1.5004    0.0000 C   0  0
    1.2990   -0.7500    0.0000 C   0  0
    1.2990    0.7500    0.0000 N   0  0
    0.0000    1.5000    0.0000 C   0  0
    0.0000    3.0008    0.0000 N   0  0
    1.2978    3.7529    0.0000 C   0  0
    1.2954    5.2529    0.0000 C   0  0
   -0.0048    6.0009    0.0000 O   0  0
   -1.3026    5.2488    0.0000 C   0  0
   -1.3002    3.7488    0.0000 C   0  0
   -1.2990    0.7500    0.0000 C   0  0
   -2.7248    1.2135    0.0000 C   0  0
   -3.6065    0.0000    0.0000 N   0  0
   -2.7248   -1.2135    0.0000 N   0  0
   -3.1884   -2.6409    0.0000 C   0  0
   -4.6234   -3.0602    0.0000 C   0  0
   -4.9781   -4.5176    0.0000 C   0  0
   -3.8933   -5.5536    0.0000 N   0  0
   -4.2452   -7.0125    0.0000 C   0  0
   -5.6840   -7.4366    0.0000 O   0  0
   -3.1582   -8.0475    0.0000 C   0  0
   -3.5078   -9.5062    0.0000 C   0  0
   -2.4194  -10.5384    0.0000 C   0  0
   -0.9813  -10.1118    0.0000 C   0  0
   -0.6316   -8.6531    0.0000 N   0  0
   -1.7201   -7.6210    0.0000 C   0  0
   -2.4537   -5.1320    0.0000 C   0  0
   -2.0990   -3.6745    0.0000 C   0  0
   -1.2990   -0.7500    0.0000 C   0  0
    0.0000   -1.5000    0.0000 N   0  0
    2.5965   -3.0004    0.0000 C   0  0
    3.8943   -3.7525    0.0000 C   0  0
  1  2  2  0
  2  3  1  0
  3  4  1  0
  4  5  2  0
  5  6  1  0
  6  7  2  0
  7  8  1  0
  8  9  2  0
  9  4  1  0
  2 10  1  0
 10 11  1  0
 11 12  2  0
 12 13  1  0
 13 14  2  0
 14 15  1  0
 15 16  2  0
 16 17  1  0
 17 18  1  0
 18 19  1  0
 19 20  1  0
 20 21  1  0
 21 22  1  0
 22 23  1  0
 23 18  1  0
 17 24  2  0
 24 25  1  0
 25 26  2  0
 26 27  1  0
 27 28  1  0
 28 29  1  0
 29 30  1  0
 30 31  1  0
 31 32  1  0
 32 33  2  0
 32 34  1  0
 34 35  2  0
 35 36  1  0
 36 37  2  0
 37 38  1  0
 38 39  2  0
 39 34  1  0
 31 40  1  0
 40 41  1  0
 41 28  1  0
 27 42  1  0
 42 24  1  0
 42 43  2  0
 43 15  1  0
 14 44  1  0
 44 45  2  0
 45 11  1  0
M  END
> <assay_chembl_id>
CHEMBL1058641

> <assay_description>
Cytotoxicity against human LNCAP cells after 3 days by MTS assay

> <document_journal>
J Med Chem

> <molecule_chembl_id>
CHEMBL540695

> <standard_value>
150

> <IC50_uM>
0.15

> <Activity>
Yes

> <Canonical_Smiles>
O=C(Nc1ccncc1)Nc1ccc(-c2nc(N3CCOCC3)c3cnn(C4CCN(C(=O)c5cccnc5)CC4)c3n2)cc1

$$$$

  SciTegic03142313312D

 36 40  0  0  0  0            999 V2000
    7.7795   -7.5156    0.0000 C   0  0
    7.7840   -6.0157    0.0000 O   0  0
    6.4870   -5.2605    0.0000 C   0  0
    5.1855   -6.0062    0.0000 O   0  0
    6.4915   -3.7597    0.0000 N   0  0
    5.1945   -3.0045    0.0000 C   0  0
    5.1969   -1.5045    0.0000 C   0  0
    3.8991   -0.7525    0.0000 C   0  0
    2.5987   -1.5004    0.0000 C   0  0
    1.2990   -0.7500    0.0000 C   0  0
    1.2990    0.7500    0.0000 N   0  0
    0.0000    1.5000    0.0000 C   0  0
    0.0000    3.0008    0.0000 N   0  0
    1.2978    3.7529    0.0000 C   0  0
    1.2954    5.2529    0.0000 C   0  0
   -0.0048    6.0009    0.0000 O   0  0
   -1.3026    5.2488    0.0000 C   0  0
   -1.3002    3.7488    0.0000 C   0  0
   -1.2990    0.7500    0.0000 C   0  0
   -2.7248    1.2135    0.0000 C   0  0
   -3.6065    0.0000    0.0000 N   0  0
   -2.7248   -1.2135    0.0000 N   0  0
   -3.1884   -2.6409    0.0000 C   0  0
   -4.6234   -3.0602    0.0000 C   0  0
   -4.9781   -4.5176    0.0000 C   0  0
   -3.8933   -5.5536    0.0000 N   0  0
   -4.2452   -7.0125    0.0000 C   0  0
   -5.6840   -7.4366    0.0000 O   0  0
   -3.1582   -8.0475    0.0000 O   0  0
   -3.5099   -9.5057    0.0000 C   0  0
   -2.4537   -5.1320    0.0000 C   0  0
   -2.0990   -3.6745    0.0000 C   0  0
   -1.2990   -0.7500    0.0000 C   0  0
    0.0000   -1.5000    0.0000 N   0  0
    2.5965   -3.0004    0.0000 C   0  0
    3.8943   -3.7525    0.0000 C   0  0
  1  2  1  0
  2  3  1  0
  3  4  2  0
  3  5  1  0
  5  6  1  0
  6  7  2  0
  7  8  1  0
  8  9  2  0
  9 10  1  0
 10 11  2  0
 11 12  1  0
 12 13  1  0
 13 14  1  0
 14 15  1  0
 15 16  1  0
 16 17  1  0
 17 18  1  0
 18 13  1  0
 12 19  2  0
 19 20  1  0
 20 21  2  0
 21 22  1  0
 22 23  1  0
 23 24  1  0
 24 25  1  0
 25 26  1  0
 26 27  1  0
 27 28  2  0
 27 29  1  0
 29 30  1  0
 26 31  1  0
 31 32  1  0
 32 23  1  0
 22 33  1  0
 33 19  1  0
 33 34  2  0
 34 10  1  0
  9 35  1  0
 35 36  2  0
 36  6  1  0
M  END
> <assay_chembl_id>
CHEMBL1058641

> <assay_description>
Cytotoxicity against human LNCAP cells after 3 days by MTS assay

> <document_journal>
J Med Chem

> <molecule_chembl_id>
CHEMBL561708

> <standard_value>
355

> <IC50_uM>
0.355

> <Activity>
Yes

> <Canonical_Smiles>
COC(=O)Nc1ccc(-c2nc(N3CCOCC3)c3cnn(C4CCN(C(=O)OC)CC4)c3n2)cc1

$$$$

  SciTegic03142313312D

 38 42  0  0  0  0            999 V2000
   -6.4771   -7.7926    0.0000 C   0  0
   -5.3902   -6.7589    0.0000 O   0  0
   -3.9504   -7.1827    0.0000 C   0  0
   -3.5983   -8.6408    0.0000 O   0  0
   -2.8628   -6.1485    0.0000 N   0  0
   -1.4233   -6.5700    0.0000 C   0  0
   -0.3384   -5.5341    0.0000 C   0  0
   -0.6928   -4.0817    0.0000 C   0  0
    0.3114   -2.9665    0.0000 N   0  0
    1.8032   -3.1233    0.0000 N   0  0
    2.4133   -1.7530    0.0000 C   0  0
    1.2990   -0.7500    0.0000 C   0  0
    1.2990    0.7500    0.0000 C   0  0
    2.5987    1.5004    0.0000 N   0  0
    3.8991    0.7525    0.0000 C   0  0
    5.1969    1.5046    0.0000 C   0  0
    5.1945    3.0046    0.0000 O   0  0
    3.8943    3.7525    0.0000 C   0  0
    2.5964    3.0004    0.0000 C   0  0
    0.0000    1.5000    0.0000 N   0  0
   -1.2990    0.7500    0.0000 C   0  0
   -2.5987    1.5004    0.0000 C   0  0
   -2.6012    3.0004    0.0000 C   0  0
   -3.9015    3.7484    0.0000 C   0  0
   -5.1993    2.9963    0.0000 C   0  0
   -6.5018    3.7420    0.0000 N   0  0
   -7.7993    2.9876    0.0000 C   0  0
   -7.7943    1.4876    0.0000 O   0  0
   -9.1017    3.7333    0.0000 O   0  0
  -10.3992    2.9790    0.0000 C   0  0
  -11.7017    3.7246    0.0000 C   0  0
  -12.9985    2.9707    0.0000 O   0  0
   -5.1969    1.4963    0.0000 C   0  0
   -3.8967    0.7484    0.0000 C   0  0
   -1.2990   -0.7500    0.0000 N   0  0
    0.0000   -1.5000    0.0000 C   0  0
   -2.1327   -3.6551    0.0000 C   0  0
   -3.2175   -4.6910    0.0000 C   0  0
  1  2  1  0
  2  3  1  0
  3  4  2  0
  3  5  1  0
  5  6  1  0
  6  7  1  0
  7  8  1  0
  8  9  1  0
  9 10  1  0
 10 11  2  0
 11 12  1  0
 12 13  2  0
 13 14  1  0
 14 15  1  0
 15 16  1  0
 16 17  1  0
 17 18  1  0
 18 19  1  0
 19 14  1  0
 13 20  1  0
 20 21  2  0
 21 22  1  0
 22 23  2  0
 23 24  1  0
 24 25  2  0
 25 26  1  0
 26 27  1  0
 27 28  2  0
 27 29  1  0
 29 30  1  0
 30 31  1  0
 31 32  1  0
 25 33  1  0
 33 34  2  0
 34 22  1  0
 21 35  1  0
 35 36  2  0
 36 12  1  0
 36  9  1  0
  8 37  1  0
 37 38  1  0
 38  5  1  0
M  END
> <assay_chembl_id>
CHEMBL1058641

> <assay_description>
Cytotoxicity against human LNCAP cells after 3 days by MTS assay

> <document_journal>
J Med Chem

> <molecule_chembl_id>
CHEMBL564404

> <standard_value>
28

> <IC50_uM>
0.028

> <Activity>
Yes

> <Canonical_Smiles>
COC(=O)N1CCC(n2ncc3c(N4CCOCC4)nc(-c4ccc(NC(=O)OCCO)cc4)nc32)CC1

$$$$

  SciTegic03142313312D

 37 41  0  0  0  0            999 V2000
    9.0758   -8.2712    0.0000 C   0  0
    7.7795   -7.5165    0.0000 C   0  0
    7.7840   -6.0157    0.0000 N   0  0
    6.4870   -5.2605    0.0000 C   0  0
    5.1855   -6.0062    0.0000 O   0  0
    6.4915   -3.7597    0.0000 N   0  0
    5.1945   -3.0045    0.0000 C   0  0
    5.1969   -1.5045    0.0000 C   0  0
    3.8991   -0.7525    0.0000 C   0  0
    2.5987   -1.5004    0.0000 C   0  0
    1.2990   -0.7500    0.0000 C   0  0
    1.2990    0.7500    0.0000 N   0  0
    0.0000    1.5000    0.0000 C   0  0
    0.0000    3.0008    0.0000 N   0  0
    1.2978    3.7529    0.0000 C   0  0
    1.2954    5.2529    0.0000 C   0  0
   -0.0048    6.0009    0.0000 O   0  0
   -1.3026    5.2488    0.0000 C   0  0
   -1.3002    3.7488    0.0000 C   0  0
   -1.2990    0.7500    0.0000 C   0  0
   -2.7248    1.2135    0.0000 C   0  0
   -3.6065    0.0000    0.0000 N   0  0
   -2.7248   -1.2135    0.0000 N   0  0
   -3.1884   -2.6409    0.0000 C   0  0
   -4.6234   -3.0602    0.0000 C   0  0
   -4.9781   -4.5176    0.0000 C   0  0
   -3.8933   -5.5536    0.0000 N   0  0
   -4.2452   -7.0125    0.0000 C   0  0
   -5.6840   -7.4366    0.0000 O   0  0
   -3.1582   -8.0475    0.0000 O   0  0
   -3.5099   -9.5057    0.0000 C   0  0
   -2.4537   -5.1320    0.0000 C   0  0
   -2.0990   -3.6745    0.0000 C   0  0
   -1.2990   -0.7500    0.0000 C   0  0
    0.0000   -1.5000    0.0000 N   0  0
    2.5965   -3.0004    0.0000 C   0  0
    3.8943   -3.7525    0.0000 C   0  0
  1  2  1  0
  2  3  1  0
  3  4  1  0
  4  5  2  0
  4  6  1  0
  6  7  1  0
  7  8  2  0
  8  9  1  0
  9 10  2  0
 10 11  1  0
 11 12  2  0
 12 13  1  0
 13 14  1  0
 14 15  1  0
 15 16  1  0
 16 17  1  0
 17 18  1  0
 18 19  1  0
 19 14  1  0
 13 20  2  0
 20 21  1  0
 21 22  2  0
 22 23  1  0
 23 24  1  0
 24 25  1  0
 25 26  1  0
 26 27  1  0
 27 28  1  0
 28 29  2  0
 28 30  1  0
 30 31  1  0
 27 32  1  0
 32 33  1  0
 33 24  1  0
 23 34  1  0
 34 20  1  0
 34 35  2  0
 35 11  1  0
 10 36  1  0
 36 37  2  0
 37  7  1  0
M  END
> <assay_chembl_id>
CHEMBL1058641

> <assay_description>
Cytotoxicity against human LNCAP cells after 3 days by MTS assay

> <document_journal>
J Med Chem

> <molecule_chembl_id>
CHEMBL558486

> <standard_value>
55

> <IC50_uM>
0.055

> <Activity>
Yes

> <Canonical_Smiles>
CCNC(=O)Nc1ccc(-c2nc(N3CCOCC3)c3cnn(C4CCN(C(=O)OC)CC4)c3n2)cc1

$$$$

  SciTegic03142313312D

 38 42  0  0  0  0            999 V2000
   -6.4771   -7.7926    0.0000 C   0  0
   -5.3902   -6.7589    0.0000 O   0  0
   -3.9504   -7.1827    0.0000 C   0  0
   -3.5983   -8.6408    0.0000 O   0  0
   -2.8628   -6.1485    0.0000 N   0  0
   -1.4233   -6.5700    0.0000 C   0  0
   -0.3384   -5.5341    0.0000 C   0  0
   -0.6928   -4.0817    0.0000 C   0  0
    0.3114   -2.9665    0.0000 N   0  0
    1.8032   -3.1233    0.0000 N   0  0
    2.4133   -1.7530    0.0000 C   0  0
    1.2990   -0.7500    0.0000 C   0  0
    1.2990    0.7500    0.0000 C   0  0
    2.5987    1.5004    0.0000 N   0  0
    3.8991    0.7525    0.0000 C   0  0
    5.1969    1.5046    0.0000 C   0  0
    5.1945    3.0046    0.0000 O   0  0
    3.8943    3.7525    0.0000 C   0  0
    2.5964    3.0004    0.0000 C   0  0
    0.0000    1.5000    0.0000 N   0  0
   -1.2990    0.7500    0.0000 C   0  0
   -2.5987    1.5004    0.0000 C   0  0
   -2.6012    3.0004    0.0000 C   0  0
   -3.9015    3.7484    0.0000 C   0  0
   -5.1993    2.9963    0.0000 C   0  0
   -6.5018    3.7420    0.0000 N   0  0
   -7.7993    2.9876    0.0000 C   0  0
   -7.7943    1.4876    0.0000 O   0  0
   -9.1017    3.7333    0.0000 N   0  0
  -10.3992    2.9790    0.0000 C   0  0
  -11.7017    3.7246    0.0000 C   0  0
  -12.9985    2.9707    0.0000 F   0  0
   -5.1969    1.4963    0.0000 C   0  0
   -3.8967    0.7484    0.0000 C   0  0
   -1.2990   -0.7500    0.0000 N   0  0
    0.0000   -1.5000    0.0000 C   0  0
   -2.1327   -3.6551    0.0000 C   0  0
   -3.2175   -4.6910    0.0000 C   0  0
  1  2  1  0
  2  3  1  0
  3  4  2  0
  3  5  1  0
  5  6  1  0
  6  7  1  0
  7  8  1  0
  8  9  1  0
  9 10  1  0
 10 11  2  0
 11 12  1  0
 12 13  2  0
 13 14  1  0
 14 15  1  0
 15 16  1  0
 16 17  1  0
 17 18  1  0
 18 19  1  0
 19 14  1  0
 13 20  1  0
 20 21  2  0
 21 22  1  0
 22 23  2  0
 23 24  1  0
 24 25  2  0
 25 26  1  0
 26 27  1  0
 27 28  2  0
 27 29  1  0
 29 30  1  0
 30 31  1  0
 31 32  1  0
 25 33  1  0
 33 34  2  0
 34 22  1  0
 21 35  1  0
 35 36  2  0
 36 12  1  0
 36  9  1  0
  8 37  1  0
 37 38  1  0
 38  5  1  0
M  END
> <assay_chembl_id>
CHEMBL1058641

> <assay_description>
Cytotoxicity against human LNCAP cells after 3 days by MTS assay

> <document_journal>
J Med Chem

> <molecule_chembl_id>
CHEMBL561907

> <standard_value>
52

> <IC50_uM>
0.052

> <Activity>
Yes

> <Canonical_Smiles>
COC(=O)N1CCC(n2ncc3c(N4CCOCC4)nc(-c4ccc(NC(=O)NCCF)cc4)nc32)CC1

$$$$

  SciTegic03142313312D

 38 43  0  0  0  0            999 V2000
   -6.4771   -7.7926    0.0000 C   0  0
   -5.3902   -6.7589    0.0000 O   0  0
   -3.9504   -7.1827    0.0000 C   0  0
   -3.5983   -8.6408    0.0000 O   0  0
   -2.8628   -6.1485    0.0000 N   0  0
   -1.4233   -6.5700    0.0000 C   0  0
   -0.3384   -5.5341    0.0000 C   0  0
   -0.6928   -4.0817    0.0000 C   0  0
    0.3114   -2.9665    0.0000 N   0  0
    1.8032   -3.1233    0.0000 N   0  0
    2.4133   -1.7530    0.0000 C   0  0
    1.2990   -0.7500    0.0000 C   0  0
    1.2990    0.7500    0.0000 C   0  0
    2.5987    1.5004    0.0000 N   0  0
    3.8991    0.7525    0.0000 C   0  0
    5.1969    1.5046    0.0000 C   0  0
    5.1945    3.0046    0.0000 O   0  0
    3.8943    3.7525    0.0000 C   0  0
    2.5964    3.0004    0.0000 C   0  0
    0.0000    1.5000    0.0000 N   0  0
   -1.2990    0.7500    0.0000 C   0  0
   -2.5987    1.5004    0.0000 C   0  0
   -2.6012    3.0004    0.0000 C   0  0
   -3.9015    3.7484    0.0000 C   0  0
   -5.1993    2.9963    0.0000 C   0  0
   -6.5018    3.7420    0.0000 N   0  0
   -7.7993    2.9876    0.0000 C   0  0
   -7.7943    1.4876    0.0000 O   0  0
   -9.1017    3.7333    0.0000 N   0  0
  -10.3992    2.9790    0.0000 C   0  0
  -11.8203    3.0174    0.0000 C   0  0
  -11.0636    1.7222    0.0000 C   0  0
   -5.1969    1.4963    0.0000 C   0  0
   -3.8967    0.7484    0.0000 C   0  0
   -1.2990   -0.7500    0.0000 N   0  0
    0.0000   -1.5000    0.0000 C   0  0
   -2.1327   -3.6551    0.0000 C   0  0
   -3.2175   -4.6910    0.0000 C   0  0
  1  2  1  0
  2  3  1  0
  3  4  2  0
  3  5  1  0
  5  6  1  0
  6  7  1  0
  7  8  1  0
  8  9  1  0
  9 10  1  0
 10 11  2  0
 11 12  1  0
 12 13  2  0
 13 14  1  0
 14 15  1  0
 15 16  1  0
 16 17  1  0
 17 18  1  0
 18 19  1  0
 19 14  1  0
 13 20  1  0
 20 21  2  0
 21 22  1  0
 22 23  2  0
 23 24  1  0
 24 25  2  0
 25 26  1  0
 26 27  1  0
 27 28  2  0
 27 29  1  0
 29 30  1  0
 30 31  1  0
 31 32  1  0
 32 30  1  0
 25 33  1  0
 33 34  2  0
 34 22  1  0
 21 35  1  0
 35 36  2  0
 36 12  1  0
 36  9  1  0
  8 37  1  0
 37 38  1  0
 38  5  1  0
M  END
> <assay_chembl_id>
CHEMBL1058641

> <assay_description>
Cytotoxicity against human LNCAP cells after 3 days by MTS assay

> <document_journal>
J Med Chem

> <molecule_chembl_id>
CHEMBL562999

> <standard_value>
42

> <IC50_uM>
0.042

> <Activity>
Yes

> <Canonical_Smiles>
COC(=O)N1CCC(n2ncc3c(N4CCOCC4)nc(-c4ccc(NC(=O)NC5CC5)cc4)nc32)CC1

$$$$

  SciTegic03142313312D

 41 46  0  0  0  0            999 V2000
   -6.4771   -7.7926    0.0000 C   0  0
   -5.3902   -6.7589    0.0000 O   0  0
   -3.9504   -7.1827    0.0000 C   0  0
   -3.5983   -8.6408    0.0000 O   0  0
   -2.8628   -6.1485    0.0000 N   0  0
   -1.4233   -6.5700    0.0000 C   0  0
   -0.3384   -5.5341    0.0000 C   0  0
   -0.6928   -4.0817    0.0000 C   0  0
    0.3114   -2.9665    0.0000 N   0  0
    1.8032   -3.1233    0.0000 N   0  0
    2.4133   -1.7530    0.0000 C   0  0
    1.2990   -0.7500    0.0000 C   0  0
    1.2990    0.7500    0.0000 C   0  0
    2.5987    1.5004    0.0000 N   0  0
    3.8991    0.7525    0.0000 C   0  0
    5.1969    1.5046    0.0000 C   0  0
    5.1945    3.0046    0.0000 O   0  0
    3.8943    3.7525    0.0000 C   0  0
    2.5964    3.0004    0.0000 C   0  0
    0.0000    1.5000    0.0000 N   0  0
   -1.2990    0.7500    0.0000 C   0  0
   -2.5987    1.5004    0.0000 C   0  0
   -2.6012    3.0004    0.0000 C   0  0
   -3.9015    3.7484    0.0000 C   0  0
   -5.1993    2.9963    0.0000 C   0  0
   -6.5018    3.7420    0.0000 N   0  0
   -7.7993    2.9876    0.0000 C   0  0
   -7.7943    1.4876    0.0000 O   0  0
   -9.1017    3.7333    0.0000 N   0  0
  -10.3992    2.9790    0.0000 C   0  0
  -11.7021    3.7223    0.0000 C   0  0
  -12.9973    2.9658    0.0000 C   0  0
  -12.9898    1.4658    0.0000 C   0  0
  -11.6870    0.7224    0.0000 N   0  0
  -10.3917    1.4789    0.0000 C   0  0
   -5.1969    1.4963    0.0000 C   0  0
   -3.8967    0.7484    0.0000 C   0  0
   -1.2990   -0.7500    0.0000 N   0  0
    0.0000   -1.5000    0.0000 C   0  0
   -2.1327   -3.6551    0.0000 C   0  0
   -3.2175   -4.6910    0.0000 C   0  0
  1  2  1  0
  2  3  1  0
  3  4  2  0
  3  5  1  0
  5  6  1  0
  6  7  1  0
  7  8  1  0
  8  9  1  0
  9 10  1  0
 10 11  2  0
 11 12  1  0
 12 13  2  0
 13 14  1  0
 14 15  1  0
 15 16  1  0
 16 17  1  0
 17 18  1  0
 18 19  1  0
 19 14  1  0
 13 20  1  0
 20 21  2  0
 21 22  1  0
 22 23  2  0
 23 24  1  0
 24 25  2  0
 25 26  1  0
 26 27  1  0
 27 28  2  0
 27 29  1  0
 29 30  1  0
 30 31  2  0
 31 32  1  0
 32 33  2  0
 33 34  1  0
 34 35  2  0
 35 30  1  0
 25 36  1  0
 36 37  2  0
 37 22  1  0
 21 38  1  0
 38 39  2  0
 39 12  1  0
 39  9  1  0
  8 40  1  0
 40 41  1  0
 41  5  1  0
M  END
> <assay_chembl_id>
CHEMBL1058641

> <assay_description>
Cytotoxicity against human LNCAP cells after 3 days by MTS assay

> <document_journal>
J Med Chem

> <molecule_chembl_id>
CHEMBL538378

> <standard_value>
31

> <IC50_uM>
0.031

> <Activity>
Yes

> <Canonical_Smiles>
COC(=O)N1CCC(n2ncc3c(N4CCOCC4)nc(-c4ccc(NC(=O)Nc5cccnc5)cc4)nc32)CC1

$$$$

  SciTegic03142313312D

 41 46  0  0  0  0            999 V2000
   -6.4771   -7.7926    0.0000 C   0  0
   -5.3902   -6.7589    0.0000 O   0  0
   -3.9504   -7.1827    0.0000 C   0  0
   -3.5983   -8.6408    0.0000 O   0  0
   -2.8628   -6.1485    0.0000 N   0  0
   -1.4233   -6.5700    0.0000 C   0  0
   -0.3384   -5.5341    0.0000 C   0  0
   -0.6928   -4.0817    0.0000 C   0  0
    0.3114   -2.9665    0.0000 N   0  0
    1.8032   -3.1233    0.0000 N   0  0
    2.4133   -1.7530    0.0000 C   0  0
    1.2990   -0.7500    0.0000 C   0  0
    1.2990    0.7500    0.0000 C   0  0
    2.5987    1.5004    0.0000 N   0  0
    3.8991    0.7525    0.0000 C   0  0
    5.1969    1.5046    0.0000 C   0  0
    5.1945    3.0046    0.0000 O   0  0
    3.8943    3.7525    0.0000 C   0  0
    2.5964    3.0004    0.0000 C   0  0
    0.0000    1.5000    0.0000 N   0  0
   -1.2990    0.7500    0.0000 C   0  0
   -2.5987    1.5004    0.0000 C   0  0
   -2.6012    3.0004    0.0000 C   0  0
   -3.9015    3.7484    0.0000 C   0  0
   -5.1993    2.9963    0.0000 C   0  0
   -6.5018    3.7420    0.0000 N   0  0
   -7.7993    2.9876    0.0000 C   0  0
   -7.7943    1.4876    0.0000 O   0  0
   -9.1017    3.7333    0.0000 N   0  0
  -10.3992    2.9790    0.0000 C   0  0
  -11.7021    3.7223    0.0000 C   0  0
  -12.9973    2.9658    0.0000 C   0  0
  -12.9898    1.4658    0.0000 N   0  0
  -11.6870    0.7224    0.0000 C   0  0
  -10.3917    1.4789    0.0000 C   0  0
   -5.1969    1.4963    0.0000 C   0  0
   -3.8967    0.7484    0.0000 C   0  0
   -1.2990   -0.7500    0.0000 N   0  0
    0.0000   -1.5000    0.0000 C   0  0
   -2.1327   -3.6551    0.0000 C   0  0
   -3.2175   -4.6910    0.0000 C   0  0
  1  2  1  0
  2  3  1  0
  3  4  2  0
  3  5  1  0
  5  6  1  0
  6  7  1  0
  7  8  1  0
  8  9  1  0
  9 10  1  0
 10 11  2  0
 11 12  1  0
 12 13  2  0
 13 14  1  0
 14 15  1  0
 15 16  1  0
 16 17  1  0
 17 18  1  0
 18 19  1  0
 19 14  1  0
 13 20  1  0
 20 21  2  0
 21 22  1  0
 22 23  2  0
 23 24  1  0
 24 25  2  0
 25 26  1  0
 26 27  1  0
 27 28  2  0
 27 29  1  0
 29 30  1  0
 30 31  2  0
 31 32  1  0
 32 33  2  0
 33 34  1  0
 34 35  2  0
 35 30  1  0
 25 36  1  0
 36 37  2  0
 37 22  1  0
 21 38  1  0
 38 39  2  0
 39 12  1  0
 39  9  1  0
  8 40  1  0
 40 41  1  0
 41  5  1  0
M  END
> <assay_chembl_id>
CHEMBL1058641

> <assay_description>
Cytotoxicity against human LNCAP cells after 3 days by MTS assay

> <document_journal>
J Med Chem

> <molecule_chembl_id>
CHEMBL557963

> <standard_value>
60

> <IC50_uM>
0.06

> <Activity>
Yes

> <Canonical_Smiles>
COC(=O)N1CCC(n2ncc3c(N4CCOCC4)nc(-c4ccc(NC(=O)Nc5ccncc5)cc4)nc32)CC1

$$$$

  SciTegic03142313312D

 40 43  0  0  1  0            999 V2000
    2.5981   -1.5000    0.0000 C   0  0
    1.2990   -0.7500    0.0000 C   0  0  1  0  0  0
    1.2990    0.7500    0.0000 C   0  0
    0.0000    1.5000    0.0000 C   0  0
   -1.2990    0.7500    0.0000 C   0  0  1  0  0  0
   -1.2990   -0.7500    0.0000 C   0  0
   -2.5981   -1.5000    0.0000 C   0  0
   -3.8971   -0.7500    0.0000 C   0  0
   -3.8971    0.7500    0.0000 C   0  0
   -2.5981    1.5000    0.0000 C   0  0
   -1.2817    2.2191    0.0000 C   0  0
   -3.9144    2.2193    0.0000 C   0  0
    0.0000   -1.5000    0.0000 C   0  0  2  0  0  0
    1.3170   -2.2179    0.0000 C   0  0
   -1.2999   -2.2084    0.0000 C   0  0
   -1.3744   -3.7074    0.0000 C   0  0
   -2.7094   -4.3932    0.0000 C   0  0  3  0  0  0
   -2.7839   -5.8922    0.0000 C   0  0
   -4.1189   -6.5780    0.0000 C   0  0
   -4.1934   -8.0769    0.0000 C   0  0
   -5.5284   -8.7627    0.0000 C   0  0
   -6.8463   -8.0735    0.0000 C   0  0
   -7.9057   -9.1355    0.0000 C   0  0
   -9.3875   -8.9027    0.0000 O   0  0
   -7.2230  -10.4711    0.0000 N   0  0
   -7.8987  -11.8083    0.0000 C   0  0
   -7.0779  -13.0648    0.0000 C   0  0
   -7.7548  -14.4043    0.0000 C   0  0
   -7.0622  -15.7205    0.0000 C   0  0
   -8.1215  -16.7825    0.0000 N   0  0
   -9.4588  -16.1033    0.0000 C   0  0
   -9.2261  -14.6214    0.0000 N   0  0
   -5.7417  -10.2346    0.0000 C   0  0
   -4.6735  -11.2876    0.0000 O   0  0
   -3.9723   -3.5822    0.0000 C   0  0
   -5.3065   -4.2694    0.0000 O   0  0
   -6.5693   -3.4584    0.0000 S   0  0
   -7.9028   -4.1453    0.0000 O   0  0
   -7.8310   -2.6472    0.0000 O   0  0
   -6.4979   -1.9601    0.0000 O   0  0
  2  1  1  6
  2  3  1  0
  3  4  1  0
  5  4  1  1
  5  6  1  0
  6  7  2  0
  7  8  1  0
  8  9  1  0
  9 10  1  0
 10  5  1  0
 10 11  1  0
 10 12  1  0
  6 13  1  0
 13  2  1  0
 13 14  1  1
 13 15  1  0
 15 16  1  0
 17 16  1  4
 17 18  1  0
 18 19  1  0
 19 20  1  0
 20 21  1  0
 21 22  2  0
 22 23  1  0
 23 24  2  0
 23 25  1  0
 25 26  1  0
 26 27  1  0
 27 28  1  0
 28 29  2  0
 29 30  1  0
 30 31  1  0
 31 32  2  0
 32 28  1  0
 25 33  1  0
 33 21  1  0
 33 34  2  0
 17 35  1  0
 35 36  1  0
 36 37  1  0
 37 38  2  0
 37 39  2  0
 37 40  1  0
M  END
> <assay_chembl_id>
CHEMBL1051537

> <assay_description>
Cytotoxicity against human LNCAP cells after 72 hrs by SRB assay

> <document_journal>
J Nat Prod

> <molecule_chembl_id>
CHEMBL556261

> <standard_value>
21800

> <IC50_uM>
21.8

> <Activity>
No

> <Canonical_Smiles>
C[C@H]1CC[C@H]2C(=CCCC2(C)C)[C@@]1(C)CCC(CCCC1=CC(=O)N(CCc2c[nH]cn2)C1=O)COS(=O)(=O)O

$$$$

  SciTegic03142313312D

 18 20  0  0  0  0            999 V2000
    2.5981   -1.5000    0.0000 F   0  0
    1.2990   -0.7500    0.0000 C   0  0
    1.2990    0.7500    0.0000 C   0  0
    0.0000    1.5000    0.0000 C   0  0
   -1.2990    0.7500    0.0000 C   0  0
   -2.5987    1.5004    0.0000 C   0  0
   -2.7390    2.9810    0.0000 N   0  0
   -4.2067    3.2905    0.0000 C   0  0
   -4.8193    4.6606    0.0000 C   0  0
   -4.0353    5.9336    0.0000 C   0  0
   -4.7489    7.2530    0.0000 C   0  0
   -6.2483    7.2947    0.0000 C   0  0
   -7.0341    6.0170    0.0000 C   0  0
   -6.3205    4.6976    0.0000 C   0  0
   -4.9546    1.9903    0.0000 N   0  0
   -3.9492    0.8772    0.0000 O   0  0
   -1.2990   -0.7500    0.0000 C   0  0
    0.0000   -1.5000    0.0000 C   0  0
  1  2  1  0
  2  3  2  0
  3  4  1  0
  4  5  2  0
  5  6  1  0
  6  7  2  0
  7  8  1  0
  8  9  1  0
  9 10  2  0
 10 11  1  0
 11 12  2  0
 12 13  1  0
 13 14  2  0
 14  9  1  0
  8 15  2  0
 15 16  1  0
 16  6  1  0
  5 17  1  0
 17 18  2  0
 18  2  1  0
M  END
> <assay_chembl_id>
CHEMBL1023641

> <assay_description>
Anticancer activity against human LNCAP cells after 24 hrs by MTT assay

> <document_journal>
Bioorg Med Chem Lett

> <molecule_chembl_id>
CHEMBL538388

> <standard_value>
23700

> <IC50_uM>
23.7

> <Activity>
No

> <Canonical_Smiles>
Fc1ccc(-c2nc(-c3ccccc3)no2)cc1

$$$$

  SciTegic03142313312D

 26 29  0  0  0  0            999 V2000
    3.8983   -0.7459    0.0000 C   0  0
    2.6003   -1.4977    0.0000 O   0  0
    1.2990   -0.7500    0.0000 C   0  0
    1.2990    0.7500    0.0000 C   0  0
    0.0000    1.5000    0.0000 C   0  0
   -1.2990    0.7500    0.0000 C   0  0
   -2.5987    1.5004    0.0000 C   0  0
   -2.7390    2.9810    0.0000 N   0  0
   -4.2067    3.2905    0.0000 O   0  0
   -4.9546    1.9903    0.0000 C   0  0
   -6.4469    1.8311    0.0000 C   0  0
   -7.4153    2.9701    0.0000 C   0  0
   -8.8906    2.6991    0.0000 C   0  0
   -9.3937    1.2860    0.0000 C   0  0
  -10.8690    1.0150    0.0000 F   0  0
   -8.4213    0.1438    0.0000 C   0  0
   -6.9460    0.4147    0.0000 C   0  0
   -3.9492    0.8772    0.0000 N   0  0
   -1.2990   -0.7500    0.0000 C   0  0
    0.0000   -1.5000    0.0000 C   0  0
   -0.0031   -3.0008    0.0000 O   0  0
   -1.3039   -3.7494    0.0000 C   0  0
   -1.4469   -5.2298    0.0000 C   0  0
   -2.9152   -5.5365    0.0000 C   0  0
   -3.6607   -4.2349    0.0000 C   0  0
   -2.6531   -3.1237    0.0000 C   0  0
  1  2  1  0
  2  3  1  0
  3  4  2  0
  4  5  1  0
  5  6  2  0
  6  7  1  0
  7  8  2  0
  8  9  1  0
  9 10  1  0
 10 11  1  0
 11 12  2  0
 12 13  1  0
 13 14  2  0
 14 15  1  0
 14 16  1  0
 16 17  2  0
 17 11  1  0
 10 18  2  0
 18  7  1  0
  6 19  1  0
 19 20  2  0
 20  3  1  0
 20 21  1  0
 21 22  1  0
 22 23  1  0
 23 24  1  0
 24 25  1  0
 25 26  1  0
 26 22  1  0
M  END
> <assay_chembl_id>
CHEMBL1023641

> <assay_description>
Anticancer activity against human LNCAP cells after 24 hrs by MTT assay

> <document_journal>
Bioorg Med Chem Lett

> <molecule_chembl_id>
CHEMBL551793

> <standard_value>
87930

> <IC50_uM>
87.93

> <Activity>
No

> <Canonical_Smiles>
COc1ccc(-c2noc(-c3ccc(F)cc3)n2)cc1OC1CCCC1

$$$$

  SciTegic03142313312D

 26 29  0  0  0  0            999 V2000
    3.8983   -0.7459    0.0000 C   0  0
    2.6003   -1.4977    0.0000 O   0  0
    1.2990   -0.7500    0.0000 C   0  0
    1.2990    0.7500    0.0000 C   0  0
    0.0000    1.5000    0.0000 C   0  0
   -1.2990    0.7500    0.0000 C   0  0
   -2.5987    1.5004    0.0000 C   0  0
   -2.7390    2.9810    0.0000 N   0  0
   -4.2067    3.2905    0.0000 O   0  0
   -4.9546    1.9903    0.0000 C   0  0
   -6.4469    1.8311    0.0000 C   0  0
   -7.4153    2.9701    0.0000 C   0  0
   -8.8906    2.6991    0.0000 C   0  0
   -9.3937    1.2860    0.0000 C   0  0
  -10.8690    1.0150    0.0000 Cl  0  0
   -8.4213    0.1438    0.0000 C   0  0
   -6.9460    0.4147    0.0000 C   0  0
   -3.9492    0.8772    0.0000 N   0  0
   -1.2990   -0.7500    0.0000 C   0  0
    0.0000   -1.5000    0.0000 C   0  0
   -0.0031   -3.0008    0.0000 O   0  0
   -1.3039   -3.7494    0.0000 C   0  0
   -1.4469   -5.2298    0.0000 C   0  0
   -2.9152   -5.5365    0.0000 C   0  0
   -3.6607   -4.2349    0.0000 C   0  0
   -2.6531   -3.1237    0.0000 C   0  0
  1  2  1  0
  2  3  1  0
  3  4  2  0
  4  5  1  0
  5  6  2  0
  6  7  1  0
  7  8  2  0
  8  9  1  0
  9 10  1  0
 10 11  1  0
 11 12  2  0
 12 13  1  0
 13 14  2  0
 14 15  1  0
 14 16  1  0
 16 17  2  0
 17 11  1  0
 10 18  2  0
 18  7  1  0
  6 19  1  0
 19 20  2  0
 20  3  1  0
 20 21  1  0
 21 22  1  0
 22 23  1  0
 23 24  1  0
 24 25  1  0
 25 26  1  0
 26 22  1  0
M  END
> <assay_chembl_id>
CHEMBL1023641

> <assay_description>
Anticancer activity against human LNCAP cells after 24 hrs by MTT assay

> <document_journal>
Bioorg Med Chem Lett

> <molecule_chembl_id>
CHEMBL561248

> <standard_value>
20800

> <IC50_uM>
20.8

> <Activity>
No

> <Canonical_Smiles>
COc1ccc(-c2noc(-c3ccc(Cl)cc3)n2)cc1OC1CCCC1

$$$$

  SciTegic03142313312D

 26 29  0  0  0  0            999 V2000
    3.8983   -0.7459    0.0000 C   0  0
    2.6003   -1.4977    0.0000 O   0  0
    1.2990   -0.7500    0.0000 C   0  0
    1.2990    0.7500    0.0000 C   0  0
    0.0000    1.5000    0.0000 C   0  0
   -1.2990    0.7500    0.0000 C   0  0
   -2.5987    1.5004    0.0000 C   0  0
   -2.7390    2.9810    0.0000 N   0  0
   -4.2067    3.2905    0.0000 O   0  0
   -4.9546    1.9903    0.0000 C   0  0
   -6.4469    1.8311    0.0000 C   0  0
   -7.4153    2.9701    0.0000 C   0  0
   -8.8906    2.6991    0.0000 C   0  0
   -9.3937    1.2860    0.0000 C   0  0
  -10.8690    1.0150    0.0000 O   0  0
   -8.4213    0.1438    0.0000 C   0  0
   -6.9460    0.4147    0.0000 C   0  0
   -3.9492    0.8772    0.0000 N   0  0
   -1.2990   -0.7500    0.0000 C   0  0
    0.0000   -1.5000    0.0000 C   0  0
   -0.0031   -3.0008    0.0000 O   0  0
   -1.3039   -3.7494    0.0000 C   0  0
   -1.4469   -5.2298    0.0000 C   0  0
   -2.9152   -5.5365    0.0000 C   0  0
   -3.6607   -4.2349    0.0000 C   0  0
   -2.6531   -3.1237    0.0000 C   0  0
  1  2  1  0
  2  3  1  0
  3  4  2  0
  4  5  1  0
  5  6  2  0
  6  7  1  0
  7  8  2  0
  8  9  1  0
  9 10  1  0
 10 11  1  0
 11 12  2  0
 12 13  1  0
 13 14  2  0
 14 15  1  0
 14 16  1  0
 16 17  2  0
 17 11  1  0
 10 18  2  0
 18  7  1  0
  6 19  1  0
 19 20  2  0
 20  3  1  0
 20 21  1  0
 21 22  1  0
 22 23  1  0
 23 24  1  0
 24 25  1  0
 25 26  1  0
 26 22  1  0
M  END
> <assay_chembl_id>
CHEMBL1023641

> <assay_description>
Anticancer activity against human LNCAP cells after 24 hrs by MTT assay

> <document_journal>
Bioorg Med Chem Lett

> <molecule_chembl_id>
CHEMBL564906

> <standard_value>
860

> <IC50_uM>
0.86

> <Activity>
Yes

> <Canonical_Smiles>
COc1ccc(-c2noc(-c3ccc(O)cc3)n2)cc1OC1CCCC1

$$$$

  SciTegic03142313312D

 23 25  0  0  0  0            999 V2000
    3.8983   -0.7459    0.0000 C   0  0
    2.6003   -1.4977    0.0000 O   0  0
    1.2990   -0.7500    0.0000 C   0  0
    1.2990    0.7500    0.0000 C   0  0
    0.0000    1.5000    0.0000 C   0  0
   -1.2990    0.7500    0.0000 C   0  0
   -2.5987    1.5004    0.0000 C   0  0
   -2.7390    2.9810    0.0000 N   0  0
   -4.2067    3.2905    0.0000 O   0  0
   -4.9546    1.9903    0.0000 C   0  0
   -6.4441    1.8282    0.0000 C   0  0
   -7.0504    0.4553    0.0000 C   0  0
   -6.1646   -0.7552    0.0000 C   0  0
   -8.5416    0.2931    0.0000 O   0  0
   -3.9492    0.8772    0.0000 N   0  0
   -1.2990   -0.7500    0.0000 C   0  0
    0.0000   -1.5000    0.0000 C   0  0
   -0.0031   -3.0008    0.0000 O   0  0
   -1.3039   -3.7494    0.0000 C   0  0
   -1.4469   -5.2298    0.0000 C   0  0
   -2.9152   -5.5365    0.0000 C   0  0
   -3.6607   -4.2349    0.0000 C   0  0
   -2.6531   -3.1237    0.0000 C   0  0
  1  2  1  0
  2  3  1  0
  3  4  2  0
  4  5  1  0
  5  6  2  0
  6  7  1  0
  7  8  2  0
  8  9  1  0
  9 10  1  0
 10 11  1  0
 11 12  1  0
 12 13  1  0
 12 14  2  0
 10 15  2  0
 15  7  1  0
  6 16  1  0
 16 17  2  0
 17  3  1  0
 17 18  1  0
 18 19  1  0
 19 20  1  0
 20 21  1  0
 21 22  1  0
 22 23  1  0
 23 19  1  0
M  END
> <assay_chembl_id>
CHEMBL1023641

> <assay_description>
Anticancer activity against human LNCAP cells after 24 hrs by MTT assay

> <document_journal>
Bioorg Med Chem Lett

> <molecule_chembl_id>
CHEMBL552745

> <standard_value>
28340

> <IC50_uM>
28.34

> <Activity>
No

> <Canonical_Smiles>
COc1ccc(-c2noc(CC(C)=O)n2)cc1OC1CCCC1

$$$$

  SciTegic03142313312D

 24 27  0  0  0  0            999 V2000
    3.8983   -0.7459    0.0000 C   0  0
    2.6003   -1.4977    0.0000 O   0  0
    1.2990   -0.7500    0.0000 C   0  0
    1.2990    0.7500    0.0000 C   0  0
    0.0000    1.5000    0.0000 C   0  0
   -1.2990    0.7500    0.0000 C   0  0
   -2.5987    1.5004    0.0000 C   0  0
   -2.7390    2.9810    0.0000 N   0  0
   -4.2067    3.2905    0.0000 O   0  0
   -4.9546    1.9903    0.0000 C   0  0
   -6.4469    1.8311    0.0000 C   0  0  3  0  0  0
   -7.5110    2.8633    0.0000 C   0  0
   -8.8282    2.1458    0.0000 C   0  0
   -8.5529    0.6713    0.0000 C   0  0
   -7.0654    0.4775    0.0000 N   0  0
   -3.9492    0.8772    0.0000 N   0  0
   -1.2990   -0.7500    0.0000 C   0  0
    0.0000   -1.5000    0.0000 C   0  0
   -0.0031   -3.0008    0.0000 O   0  0
   -1.3039   -3.7494    0.0000 C   0  0
   -1.4469   -5.2298    0.0000 C   0  0
   -2.9152   -5.5365    0.0000 C   0  0
   -3.6607   -4.2349    0.0000 C   0  0
   -2.6531   -3.1237    0.0000 C   0  0
  1  2  1  0
  2  3  1  0
  3  4  2  0
  4  5  1  0
  5  6  2  0
  6  7  1  0
  7  8  2  0
  8  9  1  0
  9 10  1  0
 11 10  1  4
 11 12  1  0
 12 13  1  0
 13 14  1  0
 14 15  1  0
 15 11  1  0
 10 16  2  0
 16  7  1  0
  6 17  1  0
 17 18  2  0
 18  3  1  0
 18 19  1  0
 19 20  1  0
 20 21  1  0
 21 22  1  0
 22 23  1  0
 23 24  1  0
 24 20  1  0
M  END
> <assay_chembl_id>
CHEMBL1023641

> <assay_description>
Anticancer activity against human LNCAP cells after 24 hrs by MTT assay

> <document_journal>
Bioorg Med Chem Lett

> <molecule_chembl_id>
CHEMBL550754

> <standard_value>
43

> <IC50_uM>
0.043

> <Activity>
Yes

> <Canonical_Smiles>
COc1ccc(-c2noc(C3CCCN3)n2)cc1OC1CCCC1

$$$$

  SciTegic03142313312D

 25 28  0  0  0  0            999 V2000
    3.8983   -0.7459    0.0000 C   0  0
    2.6003   -1.4977    0.0000 O   0  0
    1.2990   -0.7500    0.0000 C   0  0
    1.2990    0.7500    0.0000 C   0  0
    0.0000    1.5000    0.0000 C   0  0
   -1.2990    0.7500    0.0000 C   0  0
   -2.5987    1.5004    0.0000 C   0  0
   -2.7390    2.9810    0.0000 N   0  0
   -4.2067    3.2905    0.0000 O   0  0
   -4.9546    1.9903    0.0000 C   0  0
   -6.4469    1.8311    0.0000 C   0  0
   -7.4153    2.9701    0.0000 C   0  0
   -8.8906    2.6991    0.0000 C   0  0
   -9.3937    1.2860    0.0000 N   0  0
   -8.4213    0.1438    0.0000 C   0  0
   -6.9460    0.4147    0.0000 C   0  0
   -3.9492    0.8772    0.0000 N   0  0
   -1.2990   -0.7500    0.0000 C   0  0
    0.0000   -1.5000    0.0000 C   0  0
   -0.0031   -3.0008    0.0000 O   0  0
   -1.3039   -3.7494    0.0000 C   0  0
   -1.4469   -5.2298    0.0000 C   0  0
   -2.9152   -5.5365    0.0000 C   0  0
   -3.6607   -4.2349    0.0000 C   0  0
   -2.6531   -3.1237    0.0000 C   0  0
  1  2  1  0
  2  3  1  0
  3  4  2  0
  4  5  1  0
  5  6  2  0
  6  7  1  0
  7  8  2  0
  8  9  1  0
  9 10  1  0
 10 11  1  0
 11 12  1  0
 12 13  1  0
 13 14  1  0
 14 15  1  0
 15 16  1  0
 16 11  1  0
 10 17  2  0
 17  7  1  0
  6 18  1  0
 18 19  2  0
 19  3  1  0
 19 20  1  0
 20 21  1  0
 21 22  1  0
 22 23  1  0
 23 24  1  0
 24 25  1  0
 25 21  1  0
M  END
> <assay_chembl_id>
CHEMBL1023641

> <assay_description>
Anticancer activity against human LNCAP cells after 24 hrs by MTT assay

> <document_journal>
Bioorg Med Chem Lett

> <molecule_chembl_id>
CHEMBL558299

> <standard_value>
10

> <IC50_uM>
0.01

> <Activity>
Yes

> <Canonical_Smiles>
COc1ccc(-c2noc(C3CCNCC3)n2)cc1OC1CCCC1

$$$$

  SciTegic03142313312D

 37 42  0  0  1  0            999 V2000
    3.8983   -0.7459    0.0000 C   0  0
    2.6003   -1.4977    0.0000 O   0  0
    1.2990   -0.7500    0.0000 C   0  0
    1.2990    0.7500    0.0000 C   0  0
    0.0000    1.5000    0.0000 C   0  0
    0.0000    3.0000    0.0000 N   0  0
   -1.2991    3.7500    0.0000 C   0  0
   -1.2991    5.2507    0.0000 N   0  0
   -2.5993    5.9988    0.0000 C   0  0
   -2.6017    7.4988    0.0000 C   0  0
   -1.3039    8.2509    0.0000 N   0  0
   -1.3093    9.7517    0.0000 C   0  0
   -0.0128   10.5060    0.0000 O   0  0
   -2.6113   10.4982    0.0000 C   0  0  3  0  0  0
   -2.6190   11.9982    0.0000 C   0  0
   -3.9218   12.7416    0.0000 O   0  0
   -5.2170   11.9851    0.0000 C   0  0
   -6.5199   12.7285    0.0000 C   0  0
   -7.8151   11.9719    0.0000 C   0  0
   -7.8075   10.4720    0.0000 C   0  0
   -6.5047    9.7285    0.0000 C   0  0
   -5.2095   10.4851    0.0000 C   0  0
   -3.9067    9.7417    0.0000 O   0  0
   -0.0036    7.5029    0.0000 C   0  0  1  0  0  0
    1.2942    8.2550    0.0000 C   0  0
    2.5945    7.5071    0.0000 C   0  0
    2.5968    6.0071    0.0000 C   0  0
    1.2990    5.2550    0.0000 C   0  0
   -0.0012    6.0029    0.0000 C   0  0  1  0  0  0
   -2.5981    3.0000    0.0000 N   0  0
   -2.5981    1.5000    0.0000 C   0  0
   -3.8971    0.7500    0.0000 N   0  0
   -1.2990    0.7500    0.0000 C   0  0
   -1.2990   -0.7500    0.0000 C   0  0
    0.0000   -1.5000    0.0000 C   0  0
   -0.0031   -3.0008    0.0000 O   0  0
   -1.3032   -3.7490    0.0000 C   0  0
  1  2  1  0
  2  3  1  0
  3  4  2  0
  4  5  1  0
  5  6  2  0
  6  7  1  0
  7  8  1  0
  8  9  1  0
  9 10  1  0
 10 11  1  0
 11 12  1  0
 12 13  2  0
 14 12  1  4
 14 15  1  0
 15 16  1  0
 16 17  1  0
 17 18  2  0
 18 19  1  0
 19 20  2  0
 20 21  1  0
 21 22  2  0
 22 17  1  0
 22 23  1  0
 23 14  1  0
 11 24  1  0
 24 25  1  1
 25 26  1  0
 26 27  1  0
 27 28  1  0
 29 28  1  1
 29 24  1  0
 29  8  1  0
  7 30  2  0
 30 31  1  0
 31 32  1  0
 31 33  2  0
 33  5  1  0
 33 34  1  0
 34 35  2  0
 35  3  1  0
 35 36  1  0
 36 37  1  0
M  END
> <assay_chembl_id>
CHEMBL1060377

> <assay_description>
Cytotoxicity against human LNCAP cells after 72 hrs by CellTitter-Glo luminescent cell viability assay

> <document_journal>
J Med Chem

> <molecule_chembl_id>
CHEMBL564481

> <standard_value>
570

> <IC50_uM>
0.57

> <Activity>
Yes

> <Canonical_Smiles>
COc1cc2nc(N3CCN(C(=O)C4COc5ccccc5O4)[C@H]4CCCC[C@H]43)nc(N)c2cc1OC

$$$$

  SciTegic03142313312D

 33 37  0  0  0  0            999 V2000
    3.8983   -0.7459    0.0000 C   0  0
    2.6003   -1.4977    0.0000 O   0  0
    1.2990   -0.7500    0.0000 C   0  0
    1.2990    0.7500    0.0000 C   0  0
    0.0000    1.5000    0.0000 C   0  0
    0.0000    3.0000    0.0000 N   0  0
   -1.2991    3.7500    0.0000 C   0  0
   -1.2991    5.2507    0.0000 N   0  0
   -0.0012    6.0029    0.0000 C   0  0
   -0.0036    7.5029    0.0000 C   0  0
   -1.3039    8.2509    0.0000 N   0  0
   -1.3093    9.7517    0.0000 C   0  0
   -0.0128   10.5060    0.0000 O   0  0
   -2.6114   10.4982    0.0000 C   0  0  3  0  0  0
   -2.6190   11.9982    0.0000 C   0  0
   -3.9218   12.7416    0.0000 O   0  0
   -5.2171   11.9850    0.0000 C   0  0
   -6.5199   12.7285    0.0000 C   0  0
   -7.8151   11.9719    0.0000 C   0  0
   -7.8075   10.4719    0.0000 C   0  0
   -6.5047    9.7285    0.0000 C   0  0
   -5.2095   10.4851    0.0000 C   0  0
   -3.9067    9.7416    0.0000 O   0  0
   -2.6017    7.4988    0.0000 C   0  0
   -2.5993    5.9988    0.0000 C   0  0
   -2.5981    3.0000    0.0000 N   0  0
   -2.5981    1.5000    0.0000 C   0  0
   -3.8971    0.7500    0.0000 N   0  0
   -1.2990    0.7500    0.0000 C   0  0
   -1.2990   -0.7500    0.0000 C   0  0
    0.0000   -1.5000    0.0000 C   0  0
   -0.0031   -3.0008    0.0000 O   0  0
   -1.3032   -3.7490    0.0000 C   0  0
  1  2  1  0
  2  3  1  0
  3  4  2  0
  4  5  1  0
  5  6  2  0
  6  7  1  0
  7  8  1  0
  8  9  1  0
  9 10  1  0
 10 11  1  0
 11 12  1  0
 12 13  2  0
 14 12  1  4
 14 15  1  0
 15 16  1  0
 16 17  1  0
 17 18  2  0
 18 19  1  0
 19 20  2  0
 20 21  1  0
 21 22  2  0
 22 17  1  0
 22 23  1  0
 23 14  1  0
 11 24  1  0
 24 25  1  0
 25  8  1  0
  7 26  2  0
 26 27  1  0
 27 28  1  0
 27 29  2  0
 29  5  1  0
 29 30  1  0
 30 31  2  0
 31  3  1  0
 31 32  1  0
 32 33  1  0
M  END
> <assay_chembl_id>
CHEMBL1060377

> <assay_description>
Cytotoxicity against human LNCAP cells after 72 hrs by CellTitter-Glo luminescent cell viability assay

> <document_journal>
J Med Chem

> <molecule_chembl_id>
CHEMBL707

> <standard_value>
28110

> <IC50_uM>
28.11

> <Activity>
No

> <Canonical_Smiles>
COc1cc2nc(N3CCN(C(=O)C4COc5ccccc5O4)CC3)nc(N)c2cc1OC

$$$$

  SciTegic03142313312D

 56 60  0  0  1  0            999 V2000
    3.7828    8.3030    0.0000 C   0  0
    2.9743    7.0395    0.0000 C   0  0
    3.6638    5.7064    0.0000 C   0  0  1  0  0  0
    5.1622    5.6375    0.0000 C   0  0
    2.8492    4.4334    0.0000 C   0  0  2  0  0  0
    1.4847    5.0565    0.0000 N   0  0
    0.0000    5.2700    0.0000 C   0  0
    0.0000    6.7700    0.0000 O   0  0
   -1.4848    5.0565    0.0000 C   0  0  2  0  0  0
   -1.6590    6.5539    0.0000 C   0  0
   -3.1291    6.8518    0.0000 C   0  0
   -3.8667    5.5456    0.0000 C   0  0
   -2.8492    4.4334    0.0000 N   0  0
   -3.9828    3.4511    0.0000 C   0  0
   -5.1165    4.4334    0.0000 O   0  0
   -4.7938    2.1892    0.0000 C   0  0  2  0  0  0
   -6.1673    2.8197    0.0000 C   0  0
   -6.3080    4.3139    0.0000 C   0  0
   -7.6712    4.9397    0.0000 C   0  0
   -5.0847    5.1820    0.0000 C   0  0
   -5.2164    0.7500    0.0000 N   0  0
   -5.2164   -0.7500    0.0000 C   0  0
   -6.7011   -0.9635    0.0000 O   0  0
   -4.7938   -2.1893    0.0000 C   0  0  2  0  0  0
   -6.2511   -2.5748    0.0000 C   0  0
   -6.3367   -4.0724    0.0000 C   0  0
   -4.9389   -4.6166    0.0000 C   0  0
   -3.9828   -3.4511    0.0000 N   0  0
   -2.8492   -4.4334    0.0000 C   0  0
   -3.6601   -5.6953    0.0000 O   0  0
   -1.4847   -5.0565    0.0000 C   0  0  2  0  0  0
   -1.9077   -6.5075    0.0000 C   0  0
   -0.8711   -7.5917    0.0000 C   0  0
   -3.3648   -6.8636    0.0000 C   0  0
    0.0000   -5.2700    0.0000 N   0  0
    1.4847   -5.0565    0.0000 C   0  0
    1.9073   -6.4958    0.0000 O   0  0
    2.8492   -4.4334    0.0000 C   0  0  2  0  0  0
    3.4382   -5.8210    0.0000 C   0  0
    4.9327   -5.6926    0.0000 C   0  0
    5.2725   -4.2316    0.0000 C   0  0
    3.9828   -3.4511    0.0000 N   0  0  3  0  0  0
    4.7938   -2.1892    0.0000 C   0  0
    5.2164   -0.7500    0.0000 C   0  0
    6.7011   -0.9635    0.0000 O   0  0
    5.2164    0.7500    0.0000 C   0  0  2  0  0  0
    6.7128    0.9622    0.0000 C   0  0
    7.6389   -0.2188    0.0000 C   0  0
    9.1244   -0.0104    0.0000 C   0  0
   10.0477   -1.1926    0.0000 C   0  0
    9.4855   -2.5832    0.0000 C   0  0
    8.0001   -2.7917    0.0000 C   0  0
    7.0768   -1.6095    0.0000 C   0  0
    4.7938    2.1892    0.0000 N   0  0
    3.9828    3.4511    0.0000 C   0  0
    5.1164    4.4334    0.0000 O   0  0
  1  2  1  0
  2  3  1  0
  3  4  1  1
  3  5  1  0
  5  6  1  1
  6  7  1  0
  7  8  2  0
  7  9  1  0
  9 10  1  1
 10 11  1  0
 11 12  1  0
 12 13  1  0
 13  9  1  0
 13 14  1  0
 14 15  2  0
 14 16  1  0
 16 17  1  1
 17 18  1  0
 18 19  1  0
 18 20  1  0
 16 21  1  0
 21 22  1  0
 22 23  2  0
 22 24  1  0
 24 25  1  1
 25 26  1  0
 26 27  1  0
 27 28  1  0
 28 24  1  0
 28 29  1  0
 29 30  2  0
 29 31  1  0
 31 32  1  1
 32 33  1  0
 32 34  1  0
 31 35  1  0
 35 36  1  0
 36 37  2  0
 36 38  1  0
 38 39  1  1
 39 40  1  0
 40 41  1  0
 42 41  1  4
 42 38  1  0
 42 43  1  0
 43 44  1  0
 44 45  2  0
 44 46  1  0
 46 47  1  1
 47 48  1  0
 48 49  2  0
 49 50  1  0
 50 51  2  0
 51 52  1  0
 52 53  2  0
 53 48  1  0
 46 54  1  0
 54 55  1  0
 55  5  1  0
 55 56  2  0
M  END
> <assay_chembl_id>
CHEMBL1051560

> <assay_description>
Antiproliferative activity against human LNCAP cells after 3 days by MTS assay

> <document_journal>
J Nat Prod

> <molecule_chembl_id>
CHEMBL553205

> <standard_value>
800

> <IC50_uM>
0.8

> <Activity>
Yes

> <Canonical_Smiles>
CC[C@@H](C)[C@@H]1NC(=O)[C@@H]2CCCN2C(=O)[C@H](CC(C)C)NC(=O)[C@@H]2CCCN2C(=O)[C@H](C(C)C)NC(=O)[C@@H]2CCCN2CC(=O)[C@H](Cc2ccccc2)NC1=O

$$$$

  SciTegic03142313312D

 41 44  0  0  1  0            999 V2000
    2.6640   -0.1280    0.0000 C   0  0
    1.2990   -0.7500    0.0000 C   0  0  2  0  0  0
    1.2990    0.7500    0.0000 C   0  0
    0.0000    1.5000    0.0000 C   0  0
   -1.2990    0.7500    0.0000 C   0  0  2  0  0  0
   -2.5981    1.5000    0.0000 C   0  0
   -2.5981    3.0000    0.0000 C   0  0
   -3.8972    3.7500    0.0000 C   0  0
   -5.1962    3.0000    0.0000 C   0  0
   -6.4952    3.7500    0.0000 O   0  0
   -5.1962    1.5000    0.0000 C   0  0
   -3.8971    0.7500    0.0000 C   0  0
   -3.8971   -0.7500    0.0000 C   0  0
   -2.5981   -1.5000    0.0000 C   0  0  1  0  0  0
   -2.6011   -3.0008    0.0000 C   0  0
   -3.9020   -3.7494    0.0000 C   0  0
   -3.9050   -5.2502    0.0000 C   0  0
   -5.2059   -5.9988    0.0000 C   0  0
   -5.2089   -7.4996    0.0000 C   0  0
   -6.5098   -8.2482    0.0000 C   0  0
   -6.5128   -9.7490    0.0000 C   0  0
   -7.8137  -10.4976    0.0000 C   0  0
   -7.8167  -11.9984    0.0000 C   0  0
   -9.1176  -12.7470    0.0000 S   0  0  3  0  0  0
  -10.4153  -11.9947    0.0000 O   0  0
   -9.1206  -14.2478    0.0000 C   0  0
  -10.4214  -14.9964    0.0000 C   0  0
  -10.4245  -16.4972    0.0000 C   0  0
  -11.7253  -17.2457    0.0000 C   0  0
  -11.7230  -15.7457    0.0000 F   0  0
  -13.0231  -16.4935    0.0000 F   0  0
  -11.7284  -18.7466    0.0000 C   0  0
  -13.0285  -19.4947    0.0000 F   0  0
  -11.7308  -20.2466    0.0000 F   0  0
  -10.4307  -19.4988    0.0000 F   0  0
   -1.2990   -0.7500    0.0000 C   0  0  1  0  0  0
    0.0000   -1.5000    0.0000 C   0  0  2  0  0  0
    0.3326   -2.9571    0.0000 C   0  0
    1.8253   -3.1044    0.0000 C   0  0
    2.4266   -1.7302    0.0000 C   0  0  2  0  0  0
    3.8900   -1.4008    0.0000 O   0  0
  2  1  1  1
  2  3  1  0
  3  4  1  0
  5  4  1  1
  5  6  1  0
  6  7  2  0
  7  8  1  0
  8  9  2  0
  9 10  1  0
  9 11  1  0
 11 12  2  0
 12  6  1  0
 12 13  1  0
 13 14  1  0
 14 15  1  6
 15 16  1  0
 16 17  1  0
 17 18  1  0
 18 19  1  0
 19 20  1  0
 20 21  1  0
 21 22  1  0
 22 23  1  0
 24 23  1  4
 24 25  2  0
 24 26  1  0
 26 27  1  0
 27 28  1  0
 28 29  1  0
 29 30  1  0
 29 31  1  0
 29 32  1  0
 32 33  1  0
 32 34  1  0
 32 35  1  0
 36 14  1  6
 36  5  1  0
 36 37  1  0
 37  2  1  0
 37 38  1  1
 38 39  1  0
 39 40  1  0
 40  2  1  0
 40 41  1  1
M  END
> <assay_chembl_id>
CHEMBL1060482

> <assay_description>
Cytotoxicity against human LNCAP cells after 4 days by MTT assay

> <document_journal>
Bioorg Med Chem

> <molecule_chembl_id>
CHEMBL1358

> <standard_value>
18

> <IC50_uM>
0.018

> <Activity>
Yes

> <Canonical_Smiles>
C[C@]12CC[C@@H]3c4ccc(O)cc4C[C@@H](CCCCCCCCC[S+]([O-])CCCC(F)(F)C(F)(F)F)[C@H]3[C@@H]1CC[C@@H]2O

$$$$

  SciTegic03142313312D

 59 67  0  0  1  0            999 V2000
    2.3980    5.1974    0.0000 C   0  0
    1.0617    4.5159    0.0000 C   0  0
   -0.2000    5.2900    0.0000 C   0  0  2  0  0  0
   -0.2341    6.7896    0.0000 O   0  0
   -0.2000    4.0900    0.0000 C   0  0
   -1.2300    3.5100    0.0000 C   0  0  2  0  0  0
   -2.2500    4.0900    0.0000 C   0  0
   -2.2500    5.2900    0.0000 N   0  0  3  0  0  0
   -3.9200    5.5000    0.0000 C   0  0
   -5.4100    4.7800    0.0000 C   0  0
   -5.7000    3.1300    0.0000 C   0  0
   -4.9700    1.7900    0.0000 C   0  0
   -6.0100    0.6800    0.0000 N   0  0
   -7.4000    1.3200    0.0000 C   0  0
   -8.8100    0.7400    0.0000 C   0  0
  -10.0200    1.6700    0.0000 C   0  0
   -9.8300    3.1800    0.0000 C   0  0
   -8.4200    3.7700    0.0000 C   0  0
   -7.2000    2.8400    0.0000 C   0  0
   -3.3800    1.2800    0.0000 C   0  0  1  0  0  0
   -4.3011    0.1350    0.0000 C   0  0
   -5.7734    0.4218    0.0000 O   0  0
   -3.8135   -1.2844    0.0000 O   0  0
   -4.7977   -2.4164    0.0000 C   0  0
   -2.3301    0.2513    0.0000 C   0  0
   -2.7110   -1.1720    0.0000 C   0  0
   -1.6165   -2.2180    0.0000 C   0  0
   -0.2693   -1.8150    0.0000 C   0  0
    0.1414   -0.3694    0.0000 C   0  0
   -0.9061    0.6597    0.0000 C   0  0
   -0.5303    2.1129    0.0000 O   0  0
    0.4332    2.3808    0.0000 C   0  0
    0.6269   -3.0200    0.0000 N   0  0
    2.1267   -3.0420    0.0000 C   0  0
   -0.2779   -4.1651    0.0000 C   0  0  1  0  0  0
   -0.0140   -5.6041    0.0000 C   0  0  1  0  0  0
    1.0936   -4.5926    0.0000 O   0  0
    0.2302   -7.0636    0.0000 C   0  0
   -0.5575   -7.6797    0.0000 O   0  0
    1.6218   -7.6255    0.0000 O   0  0
    1.8319   -9.1108    0.0000 C   0  0
   -1.1529   -6.6124    0.0000 C   0  0  2  0  0  0
   -0.8799   -8.0880    0.0000 O   0  0
   -2.0206   -9.0633    0.0000 C   0  0
   -1.8376  -10.0464    0.0000 C   0  0
   -3.4352   -8.5642    0.0000 O   0  0
   -2.5335   -6.1188    0.0000 C   0  0  2  0  0  0
   -2.2630   -7.5946    0.0000 C   0  0
   -3.0242   -8.2431    0.0000 C   0  0
   -3.6287   -7.0542    0.0000 C   0  0
   -5.0406   -6.5494    0.0000 C   0  0
   -5.3459   -4.5824    0.0000 C   0  0
   -4.0445   -3.8623    0.0000 N   0  0  3  0  0  0
   -3.7291   -2.4358    0.0000 C   0  0
   -2.2452   -2.2939    0.0000 C   0  0
   -1.6741   -3.6659    0.0000 C   0  0  2  0  0  0
   -2.8019   -4.6427    0.0000 C   0  0  2  0  0  0
   -1.8700    1.9700    0.0000 C   0  0
   -1.2300    5.8900    0.0000 C   0  0
  1  2  1  0
  2  3  1  0
  3  4  1  1
  3  5  1  0
  6  5  1  1
  6  7  1  0
  8  7  1  4
  8  9  1  0
  9 10  1  0
 10 11  1  0
 11 12  2  0
 12 13  1  0
 13 14  1  0
 14 15  2  0
 15 16  1  0
 16 17  2  0
 17 18  1  0
 18 19  2  0
 19 11  1  0
 19 14  1  0
 12 20  1  0
 20 21  1  1
 21 22  2  0
 21 23  1  0
 23 24  1  0
 20 25  1  0
 25 26  2  0
 26 27  1  0
 27 28  2  0
 28 29  1  0
 29 30  2  0
 30 25  1  0
 30 31  1  0
 31 32  1  0
 28 33  1  0
 33 34  1  0
 35 33  1  1
 35 36  1  0
 36 37  1  6
 36 38  1  0
 38 39  2  0
 38 40  1  0
 40 41  1  0
 36 42  1  0
 42 43  1  6
 43 44  1  0
 44 45  1  0
 44 46  2  0
 42 47  1  0
 47 48  1  1
 48 49  1  0
 47 50  1  0
 50 51  2  0
 51 52  1  0
 53 52  1  4
 53 54  1  0
 54 55  1  0
 56 55  1  6
 56 27  1  0
 56 35  1  0
 56 57  1  0
 57 53  1  6
 57 47  1  0
 20 58  1  0
 58  6  1  0
  8 59  1  0
 59  3  1  0
M  END
> <assay_chembl_id>
CHEMBL1060498

> <assay_description>
Cytotoxicity against human LNCAP cells after 48 hrs by SRB assay

> <document_journal>
Bioorg Med Chem

> <molecule_chembl_id>
CHEMBL378544

> <standard_value>
29300

> <IC50_uM>
29.3

> <Activity>
No

> <Canonical_Smiles>
CC[C@]1(O)C[C@@H]2CN(CCc3c([nH]c4ccccc34)[C@@](C(=O)OC)(c3cc4c(cc3OC)N(C)[C@H]3[C@@](O)(C(=O)OC)[C@H](OC(C)=O)[C@]5(CC)C=CCN6CC[C@]43[C@@H]65)C2)C1.O=S(=O)(O)O

$$$$

  SciTegic03142313312D

 27 28  0  0  0  0            999 V2000
    3.8983   -0.7459    0.0000 C   0  0
    2.6003   -1.4977    0.0000 O   0  0
    1.2990   -0.7500    0.0000 C   0  0
    1.2990    0.7500    0.0000 C   0  0
    0.0000    1.5000    0.0000 C   0  0
   -0.0031    3.0008    0.0000 C   0  0
   -1.3039    3.7494    0.0000 C   0  0
   -1.3070    5.2502    0.0000 C   0  0
   -0.0093    6.0025    0.0000 O   0  0
   -2.6078    5.9988    0.0000 C   0  0
   -2.6109    7.4996    0.0000 C   0  0
   -1.3132    8.2519    0.0000 O   0  0
   -3.9118    8.2481    0.0000 C   0  0
   -3.9149    9.7490    0.0000 C   0  0
   -5.2157   10.4975    0.0000 C   0  0
   -6.5122    9.7430    0.0000 C   0  0
   -6.5071    8.2431    0.0000 C   0  0
   -7.8138   10.4885    0.0000 C   0  0
   -7.8190   11.9885    0.0000 C   0  0
   -6.5226   12.7430    0.0000 C   0  0
   -5.2210   11.9975    0.0000 C   0  0
   -3.9373   11.2215    0.0000 C   0  0
   -5.2614   13.4970    0.0000 C   0  0
   -1.2990    0.7500    0.0000 C   0  0
   -1.2990   -0.7500    0.0000 C   0  0
    0.0000   -1.5000    0.0000 C   0  0
    0.0000   -3.0000    0.0000 O   0  0
  1  2  1  0
  2  3  1  0
  3  4  2  0
  4  5  1  0
  5  6  1  0
  6  7  2  0
  7  8  1  0
  8  9  1  0
  8 10  2  0
 10 11  1  0
 11 12  2  0
 11 13  1  0
 13 14  2  0
 14 15  1  0
 15 16  2  0
 16 17  1  0
 16 18  1  0
 18 19  1  0
 19 20  1  0
 20 21  1  0
 21 15  1  0
 21 22  1  0
 21 23  1  0
  5 24  2  0
 24 25  1  0
 25 26  2  0
 26  3  1  0
 26 27  1  0
M  END
> <assay_chembl_id>
CHEMBL1052598

> <assay_description>
Cytotoxicity against human LNCAP cells after 72 hrs by MTT assay

> <document_journal>
J Med Chem

> <molecule_chembl_id>
CHEMBL560878

> <standard_value>
20600

> <IC50_uM>
20.6

> <Activity>
No

> <Canonical_Smiles>
COc1cc(/C=C/C(O)=C/C(=O)/C=C/C2=C(C)CCCC2(C)C)ccc1O

$$$$

  SciTegic03142313312D

 27 28  0  0  0  0            999 V2000
    3.8983   -0.7459    0.0000 C   0  0
    2.6003   -1.4977    0.0000 O   0  0
    1.2990   -0.7500    0.0000 C   0  0
    1.2990    0.7500    0.0000 C   0  0
    0.0000    1.5000    0.0000 C   0  0
   -1.2990    0.7500    0.0000 C   0  0
   -2.6003    1.4977    0.0000 C   0  0
   -3.8990    0.7455    0.0000 C   0  0
   -5.2003    1.4932    0.0000 C   0  0
   -5.2029    2.9932    0.0000 O   0  0
   -6.4990    0.7409    0.0000 C   0  0
   -7.8003    1.4887    0.0000 C   0  0
   -7.8029    2.9887    0.0000 O   0  0
   -9.0990    0.7364    0.0000 C   0  0
  -10.4003    1.4841    0.0000 C   0  0
  -11.6990    0.7318    0.0000 C   0  0
  -11.6938   -0.7682    0.0000 C   0  0
  -10.3922   -1.5137    0.0000 C   0  0
  -12.9903   -1.5227    0.0000 C   0  0
  -14.2919   -0.7772    0.0000 C   0  0
  -14.2971    0.7228    0.0000 C   0  0
  -13.0006    1.4773    0.0000 C   0  0
  -11.6868    2.2010    0.0000 C   0  0
  -14.3194    2.1920    0.0000 C   0  0
   -1.2990   -0.7500    0.0000 C   0  0
    0.0000   -1.5000    0.0000 C   0  0
    0.0000   -3.0000    0.0000 O   0  0
  1  2  1  0
  2  3  1  0
  3  4  2  0
  4  5  1  0
  5  6  2  0
  6  7  1  0
  7  8  2  0
  8  9  1  0
  9 10  1  0
  9 11  2  0
 11 12  1  0
 12 13  2  0
 12 14  1  0
 14 15  2  0
 15 16  1  0
 16 17  2  0
 17 18  1  0
 17 19  1  0
 19 20  1  0
 20 21  1  0
 21 22  1  0
 22 16  1  0
 22 23  1  0
 22 24  1  0
  6 25  1  0
 25 26  2  0
 26  3  1  0
 26 27  1  0
M  END
> <assay_chembl_id>
CHEMBL1052598

> <assay_description>
Cytotoxicity against human LNCAP cells after 72 hrs by MTT assay

> <document_journal>
J Med Chem

> <molecule_chembl_id>
CHEMBL551878

> <standard_value>
25900

> <IC50_uM>
25.9

> <Activity>
No

> <Canonical_Smiles>
COc1ccc(/C=C/C(O)=C/C(=O)/C=C/C2=C(C)CCCC2(C)C)cc1O

$$$$

  SciTegic03142313312D

 30 31  0  0  0  0            999 V2000
    3.8983   -0.7459    0.0000 C   0  0
    2.6003   -1.4977    0.0000 O   0  0
    1.2990   -0.7500    0.0000 C   0  0
    1.2990    0.7500    0.0000 C   0  0
    0.0000    1.5000    0.0000 C   0  0
   -0.0031    3.0008    0.0000 C   0  0
   -1.3039    3.7494    0.0000 C   0  0
   -1.3070    5.2502    0.0000 C   0  0
   -0.0093    6.0025    0.0000 O   0  0
   -2.6078    5.9988    0.0000 C   0  0
   -2.6109    7.4996    0.0000 C   0  0
   -1.3132    8.2519    0.0000 O   0  0
   -3.9118    8.2481    0.0000 C   0  0
   -3.9149    9.7490    0.0000 C   0  0
   -5.2157   10.4975    0.0000 C   0  0
   -6.5122    9.7430    0.0000 C   0  0
   -6.5071    8.2431    0.0000 C   0  0
   -7.8138   10.4885    0.0000 C   0  0
   -7.8190   11.9885    0.0000 C   0  0
   -6.5226   12.7430    0.0000 C   0  0
   -5.2210   11.9975    0.0000 C   0  0
   -3.9373   11.2215    0.0000 C   0  0
   -5.2614   13.4970    0.0000 C   0  0
   -1.2990    0.7500    0.0000 C   0  0
   -1.2990   -0.7500    0.0000 C   0  0
   -2.6003   -1.4978    0.0000 O   0  0
   -3.8983   -0.7459    0.0000 C   0  0
    0.0000   -1.5000    0.0000 C   0  0
    0.0031   -3.0008    0.0000 O   0  0
    1.3032   -3.7490    0.0000 C   0  0
  1  2  1  0
  2  3  1  0
  3  4  2  0
  4  5  1  0
  5  6  1  0
  6  7  2  0
  7  8  1  0
  8  9  1  0
  8 10  2  0
 10 11  1  0
 11 12  2  0
 11 13  1  0
 13 14  2  0
 14 15  1  0
 15 16  2  0
 16 17  1  0
 16 18  1  0
 18 19  1  0
 19 20  1  0
 20 21  1  0
 21 15  1  0
 21 22  1  0
 21 23  1  0
  5 24  2  0
 24 25  1  0
 25 26  1  0
 26 27  1  0
 25 28  2  0
 28  3  1  0
 28 29  1  0
 29 30  1  0
M  END
> <assay_chembl_id>
CHEMBL1052598

> <assay_description>
Cytotoxicity against human LNCAP cells after 72 hrs by MTT assay

> <document_journal>
J Med Chem

> <molecule_chembl_id>
CHEMBL551880

> <standard_value>
21400

> <IC50_uM>
21.4

> <Activity>
No

> <Canonical_Smiles>
COc1cc(/C=C/C(O)=C/C(=O)/C=C/C2=C(C)CCCC2(C)C)cc(OC)c1OC

$$$$

  SciTegic03142313312D

 26 27  0  0  0  0            999 V2000
    2.5951   -3.0031    0.0000 C   0  0
    2.5973   -1.5031    0.0000 O   0  0
    1.2990   -0.7500    0.0000 C   0  0
    1.2990    0.7500    0.0000 C   0  0
    0.0000    1.5000    0.0000 C   0  0
   -1.2990    0.7500    0.0000 C   0  0
   -2.6003    1.4977    0.0000 C   0  0
   -3.8990    0.7455    0.0000 C   0  0
   -5.2003    1.4932    0.0000 C   0  0
   -5.2029    2.9932    0.0000 O   0  0
   -6.4990    0.7409    0.0000 C   0  0
   -7.8003    1.4887    0.0000 C   0  0
   -7.8029    2.9887    0.0000 O   0  0
   -9.0990    0.7364    0.0000 C   0  0
  -10.4003    1.4841    0.0000 C   0  0
  -11.6990    0.7318    0.0000 C   0  0
  -11.6938   -0.7682    0.0000 C   0  0
  -10.3922   -1.5137    0.0000 C   0  0
  -12.9903   -1.5227    0.0000 C   0  0
  -14.2919   -0.7772    0.0000 C   0  0
  -14.2971    0.7228    0.0000 C   0  0
  -13.0006    1.4773    0.0000 C   0  0
  -11.6868    2.2010    0.0000 C   0  0
  -14.3194    2.1920    0.0000 C   0  0
   -1.2990   -0.7500    0.0000 C   0  0
    0.0000   -1.5000    0.0000 N   0  0
  1  2  1  0
  2  3  1  0
  3  4  2  0
  4  5  1  0
  5  6  2  0
  6  7  1  0
  7  8  2  0
  8  9  1  0
  9 10  1  0
  9 11  2  0
 11 12  1  0
 12 13  2  0
 12 14  1  0
 14 15  2  0
 15 16  1  0
 16 17  2  0
 17 18  1  0
 17 19  1  0
 19 20  1  0
 20 21  1  0
 21 22  1  0
 22 16  1  0
 22 23  1  0
 22 24  1  0
  6 25  1  0
 25 26  2  0
 26  3  1  0
M  END
> <assay_chembl_id>
CHEMBL1052598

> <assay_description>
Cytotoxicity against human LNCAP cells after 72 hrs by MTT assay

> <document_journal>
J Med Chem

> <molecule_chembl_id>
CHEMBL558066

> <standard_value>
25100

> <IC50_uM>
25.1

> <Activity>
No

> <Canonical_Smiles>
COc1ccc(/C=C/C(O)=C/C(=O)/C=C/C2=C(C)CCCC2(C)C)cn1

$$$$

  SciTegic03142313312D

 30 30  0  0  1  0            999 V2000
    2.5981   -1.5000    0.0000 C   0  0
    1.2990   -0.7500    0.0000 C   0  0
    1.2990    0.7500    0.0000 C   0  0
    2.6003    1.4978    0.0000 C   0  0
    3.8990    0.7455    0.0000 C   0  0
    5.2003    1.4932    0.0000 C   0  0
    5.2029    2.9932    0.0000 C   0  0
    6.4990    0.7410    0.0000 C   0  0
    7.8003    1.4887    0.0000 C   0  0
    9.0990    0.7365    0.0000 C   0  0
   10.4003    1.4842    0.0000 C   0  0
   10.4029    2.9842    0.0000 C   0  0
   11.6989    0.7320    0.0000 C   0  0
   13.0002    1.4797    0.0000 C   0  0
   13.0028    2.9797    0.0000 O   0  0
   14.2989    0.7275    0.0000 N   0  0
   15.6002    1.4752    0.0000 C   0  0  1  0  0  0
   16.8989    0.7229    0.0000 C   0  0
   18.2002    1.4707    0.0000 C   0  0
   19.4982    0.7189    0.0000 C   0  0
   18.2028    2.9707    0.0000 C   0  0
   15.6059    2.9760    0.0000 C   0  0
   16.9073    3.7219    0.0000 O   0  0
   14.3095    3.7305    0.0000 O   0  0
    0.0000    1.5000    0.0000 C   0  0
    1.3164    2.2191    0.0000 C   0  0
   -1.3163    2.2193    0.0000 C   0  0
   -1.2990    0.7500    0.0000 C   0  0
   -1.2990   -0.7500    0.0000 C   0  0
    0.0000   -1.5000    0.0000 C   0  0
  1  2  1  0
  2  3  2  0
  3  4  1  0
  4  5  2  0
  5  6  1  0
  6  7  1  0
  6  8  2  0
  8  9  1  0
  9 10  2  0
 10 11  1  0
 11 12  1  0
 11 13  2  0
 13 14  1  0
 14 15  2  0
 14 16  1  0
 17 16  1  6
 17 18  1  0
 18 19  1  0
 19 20  1  0
 19 21  1  0
 17 22  1  0
 22 23  2  0
 22 24  1  0
  3 25  1  0
 25 26  1  0
 25 27  1  0
 25 28  1  0
 28 29  1  0
 29 30  1  0
 30  2  1  0
M  END
> <assay_chembl_id>
CHEMBL1057254

> <assay_description>
Antiproliferative activity against human LNCAP cells after 48 hrs by MTT assay

> <document_journal>
Eur J Med Chem

> <molecule_chembl_id>
CHEMBL560471

> <standard_value>
270

> <IC50_uM>
0.27

> <Activity>
Yes

> <Canonical_Smiles>
CC1=C(/C=C/C(C)=C/C=C/C(C)=C/C(=O)N[C@@H](CC(C)C)C(=O)O)C(C)(C)CCC1

$$$$

  SciTegic03142313312D

 27 27  0  0  0  0            999 V2000
    2.5981   -1.5000    0.0000 C   0  0
    1.2990   -0.7500    0.0000 C   0  0
    1.2990    0.7500    0.0000 C   0  0
    2.6003    1.4978    0.0000 C   0  0
    3.8990    0.7455    0.0000 C   0  0
    5.2003    1.4932    0.0000 C   0  0
    5.2029    2.9932    0.0000 C   0  0
    6.4990    0.7410    0.0000 C   0  0
    7.8003    1.4887    0.0000 C   0  0
    9.0990    0.7365    0.0000 C   0  0
   10.4003    1.4842    0.0000 C   0  0
   10.4029    2.9842    0.0000 C   0  0
   11.6989    0.7320    0.0000 C   0  0
   13.0002    1.4797    0.0000 C   0  0
   13.0028    2.9797    0.0000 O   0  0
   14.2989    0.7275    0.0000 N   0  0
   15.6002    1.4752    0.0000 C   0  0
   16.8989    0.7229    0.0000 C   0  0
   18.2002    1.4707    0.0000 C   0  0
   19.4982    0.7189    0.0000 O   0  0
   18.2028    2.9707    0.0000 O   0  0
    0.0000    1.5000    0.0000 C   0  0
    1.3164    2.2191    0.0000 C   0  0
   -1.3163    2.2193    0.0000 C   0  0
   -1.2990    0.7500    0.0000 C   0  0
   -1.2990   -0.7500    0.0000 C   0  0
    0.0000   -1.5000    0.0000 C   0  0
  1  2  1  0
  2  3  2  0
  3  4  1  0
  4  5  2  0
  5  6  1  0
  6  7  1  0
  6  8  2  0
  8  9  1  0
  9 10  2  0
 10 11  1  0
 11 12  1  0
 11 13  2  0
 13 14  1  0
 14 15  2  0
 14 16  1  0
 16 17  1  0
 17 18  1  0
 18 19  1  0
 19 20  2  0
 19 21  1  0
  3 22  1  0
 22 23  1  0
 22 24  1  0
 22 25  1  0
 25 26  1  0
 26 27  1  0
 27  2  1  0
M  END
> <assay_chembl_id>
CHEMBL1057254

> <assay_description>
Antiproliferative activity against human LNCAP cells after 48 hrs by MTT assay

> <document_journal>
Eur J Med Chem

> <molecule_chembl_id>
CHEMBL541957

> <standard_value>
270

> <IC50_uM>
0.27

> <Activity>
Yes

> <Canonical_Smiles>
CC1=C(/C=C/C(C)=C/C=C/C(C)=C/C(=O)NCCC(=O)O)C(C)(C)CCC1

$$$$

  SciTegic03142313312D

 22 22  0  0  0  0            999 V2000
    2.5981   -1.5000    0.0000 C   0  0
    1.2990   -0.7500    0.0000 C   0  0
    1.2990    0.7500    0.0000 C   0  0
    2.6003    1.4978    0.0000 C   0  0
    3.8990    0.7455    0.0000 C   0  0
    5.2003    1.4932    0.0000 C   0  0
    5.2029    2.9932    0.0000 C   0  0
    6.4990    0.7410    0.0000 C   0  0
    7.8003    1.4887    0.0000 C   0  0
    9.0990    0.7365    0.0000 C   0  0
   10.4003    1.4842    0.0000 C   0  0
   10.4029    2.9842    0.0000 C   0  0
   11.6989    0.7320    0.0000 C   0  0
   13.0002    1.4797    0.0000 C   0  0
   14.2982    0.7279    0.0000 O   0  0
   13.0028    2.9797    0.0000 O   0  0
    0.0000    1.5000    0.0000 C   0  0
    1.3164    2.2191    0.0000 C   0  0
   -1.3163    2.2193    0.0000 C   0  0
   -1.2990    0.7500    0.0000 C   0  0
   -1.2990   -0.7500    0.0000 C   0  0
    0.0000   -1.5000    0.0000 C   0  0
  1  2  1  0
  2  3  2  0
  3  4  1  0
  4  5  2  0
  5  6  1  0
  6  7  1  0
  6  8  2  0
  8  9  1  0
  9 10  2  0
 10 11  1  0
 11 12  1  0
 11 13  2  0
 13 14  1  0
 14 15  2  0
 14 16  1  0
  3 17  1  0
 17 18  1  0
 17 19  1  0
 17 20  1  0
 20 21  1  0
 21 22  1  0
 22  2  1  0
M  END
> <assay_chembl_id>
CHEMBL1057254

> <assay_description>
Antiproliferative activity against human LNCAP cells after 48 hrs by MTT assay

> <document_journal>
Eur J Med Chem

> <molecule_chembl_id>
CHEMBL38

> <standard_value>
500

> <IC50_uM>
0.5

> <Activity>
Yes

> <Canonical_Smiles>
CC1=C(/C=C/C(C)=C/C=C/C(C)=C/C(=O)O)C(C)(C)CCC1

$$$$

  SciTegic03142313312D

 20 23  0  0  0  0            999 V2000
   -6.6712   -4.1272    0.0000 C   0  0
   -7.3477   -5.4660    0.0000 C   0  0
   -6.5265   -6.7213    0.0000 N   0  0
   -5.0288   -6.6378    0.0000 C   0  0
   -4.3554   -5.3030    0.0000 C   0  0
   -2.8675   -5.1069    0.0000 C   0  0
   -1.8348   -6.1949    0.0000 N   0  0
   -0.4810   -5.5489    0.0000 N   0  0
   -0.6928   -4.0817    0.0000 C   0  0
    0.3114   -2.9665    0.0000 C   0  0
    1.8032   -3.1233    0.0000 C   0  0
    2.4133   -1.7530    0.0000 N   0  0
    1.2990   -0.7500    0.0000 C   0  0
    1.2990    0.7500    0.0000 C   0  0
    0.0000    1.5000    0.0000 C   0  0
   -1.2990    0.7500    0.0000 C   0  0
   -1.2990   -0.7500    0.0000 C   0  0
    0.0000   -1.5000    0.0000 C   0  0
   -2.1519   -3.7886    0.0000 O   0  0
   -5.1735   -4.0437    0.0000 C   0  0
  1  2  2  0
  2  3  1  0
  3  4  2  0
  4  5  1  0
  5  6  1  0
  6  7  2  0
  7  8  1  0
  8  9  2  0
  9 10  1  0
 10 11  2  0
 11 12  1  0
 12 13  1  0
 13 14  2  0
 14 15  1  0
 15 16  2  0
 16 17  1  0
 17 18  2  0
 18 10  1  0
 18 13  1  0
  9 19  1  0
 19  6  1  0
  5 20  2  0
 20  1  1  0
M  END
> <assay_chembl_id>
CHEMBL1056719

> <assay_description>
Cytotoxicity against human LNCAP cells by MTT assay

> <document_journal>
Bioorg Med Chem Lett

> <molecule_chembl_id>
CHEMBL559257

> <standard_value>
69400

> <IC50_uM>
69.4

> <Activity>
No

> <Canonical_Smiles>
c1cncc(-c2nnc(-c3c[nH]c4ccccc34)o2)c1

$$$$

  SciTegic03142313312D

 39 44  0  0  0  0            999 V2000
    9.0758   -8.2712    0.0000 C   0  0
    7.7795   -7.5165    0.0000 C   0  0
    7.7840   -6.0157    0.0000 N   0  0
    6.4870   -5.2605    0.0000 C   0  0
    5.1855   -6.0062    0.0000 O   0  0
    6.4915   -3.7597    0.0000 N   0  0
    5.1945   -3.0045    0.0000 C   0  0
    5.1969   -1.5045    0.0000 C   0  0
    3.8991   -0.7525    0.0000 C   0  0
    2.5987   -1.5004    0.0000 C   0  0
    1.2990   -0.7500    0.0000 C   0  0
    1.2990    0.7500    0.0000 N   0  0
    0.0000    1.5000    0.0000 C   0  0
    0.0000    3.0008    0.0000 N   0  0
    0.3976    4.0929    0.0000 C   0  0
    1.9160    5.0370    0.0000 C   0  0  3  0  0  0
    3.4405    4.4165    0.0000 C   0  0
    2.0983    4.3984    0.0000 C   0  0
    0.8565    5.1517    0.0000 C   0  0  3  0  0  0
   -0.5573    4.3156    0.0000 C   0  0
    1.3526    6.4269    0.0000 O   0  0
   -1.2990    0.7500    0.0000 C   0  0
   -2.7248    1.2135    0.0000 C   0  0
   -3.6065    0.0000    0.0000 N   0  0
   -2.7248   -1.2135    0.0000 N   0  0
   -3.1884   -2.6409    0.0000 C   0  0
   -4.6234   -3.0602    0.0000 C   0  0
   -4.9781   -4.5176    0.0000 C   0  0
   -3.8933   -5.5536    0.0000 N   0  0
   -4.2452   -7.0125    0.0000 C   0  0
   -5.6840   -7.4366    0.0000 O   0  0
   -3.1582   -8.0475    0.0000 O   0  0
   -3.5099   -9.5057    0.0000 C   0  0
   -2.4537   -5.1320    0.0000 C   0  0
   -2.0990   -3.6745    0.0000 C   0  0
   -1.2990   -0.7500    0.0000 C   0  0
    0.0000   -1.5000    0.0000 N   0  0
    2.5965   -3.0004    0.0000 C   0  0
    3.8943   -3.7525    0.0000 C   0  0
  1  2  1  0
  2  3  1  0
  3  4  1  0
  4  5  2  0
  4  6  1  0
  6  7  1  0
  7  8  2  0
  8  9  1  0
  9 10  2  0
 10 11  1  0
 11 12  2  0
 12 13  1  0
 13 14  1  0
 14 15  1  0
 16 15  1  4
 16 17  1  0
 17 18  1  0
 19 18  1  4
 19 20  1  0
 20 14  1  0
 19 21  1  0
 21 16  1  0
 13 22  2  0
 22 23  1  0
 23 24  2  0
 24 25  1  0
 25 26  1  0
 26 27  1  0
 27 28  1  0
 28 29  1  0
 29 30  1  0
 30 31  2  0
 30 32  1  0
 32 33  1  0
 29 34  1  0
 34 35  1  0
 35 26  1  0
 25 36  1  0
 36 22  1  0
 36 37  2  0
 37 11  1  0
 10 38  1  0
 38 39  2  0
 39  7  1  0
M  END
> <assay_chembl_id>
CHEMBL1047616

> <assay_description>
Growth inhibition of human LNCAP cells after 3 days by MTS method

> <document_journal>
J Med Chem

> <molecule_chembl_id>
CHEMBL577137

> <standard_value>
9

> <IC50_uM>
0.009

> <Activity>
Yes

> <Canonical_Smiles>
CCNC(=O)Nc1ccc(-c2nc(N3CC4CCC(C3)O4)c3cnn(C4CCN(C(=O)OC)CC4)c3n2)cc1

$$$$

  SciTegic03142313312D

 31 35  0  0  0  0            999 V2000
    9.0758   -8.2712    0.0000 C   0  0
    7.7795   -7.5165    0.0000 C   0  0
    7.7840   -6.0157    0.0000 N   0  0
    6.4870   -5.2605    0.0000 C   0  0
    5.1855   -6.0062    0.0000 O   0  0
    6.4915   -3.7597    0.0000 N   0  0
    5.1945   -3.0045    0.0000 C   0  0
    5.1969   -1.5045    0.0000 C   0  0
    3.8991   -0.7525    0.0000 C   0  0
    2.5987   -1.5004    0.0000 C   0  0
    1.2990   -0.7500    0.0000 C   0  0
    1.2990    0.7500    0.0000 N   0  0
    0.0000    1.5000    0.0000 C   0  0
    0.0000    3.0008    0.0000 N   0  0
    0.3976    4.0929    0.0000 C   0  0
    1.9160    5.0370    0.0000 C   0  0  3  0  0  0
    3.4405    4.4165    0.0000 C   0  0
    2.0983    4.3984    0.0000 C   0  0
    0.8565    5.1517    0.0000 C   0  0  3  0  0  0
   -0.5573    4.3156    0.0000 C   0  0
    1.3526    6.4269    0.0000 O   0  0
   -1.2990    0.7500    0.0000 C   0  0
   -2.7248    1.2135    0.0000 C   0  0
   -3.6065    0.0000    0.0000 N   0  0
   -2.7248   -1.2135    0.0000 N   0  0
   -3.1904   -2.6376    0.0000 C   0  0
   -4.6580   -2.9476    0.0000 C   0  0
   -1.2990   -0.7500    0.0000 C   0  0
    0.0000   -1.5000    0.0000 N   0  0
    2.5965   -3.0004    0.0000 C   0  0
    3.8943   -3.7525    0.0000 C   0  0
  1  2  1  0
  2  3  1  0
  3  4  1  0
  4  5  2  0
  4  6  1  0
  6  7  1  0
  7  8  2  0
  8  9  1  0
  9 10  2  0
 10 11  1  0
 11 12  2  0
 12 13  1  0
 13 14  1  0
 14 15  1  0
 16 15  1  4
 16 17  1  0
 17 18  1  0
 19 18  1  4
 19 20  1  0
 20 14  1  0
 19 21  1  0
 21 16  1  0
 13 22  2  0
 22 23  1  0
 23 24  2  0
 24 25  1  0
 25 26  1  0
 26 27  1  0
 25 28  1  0
 28 22  1  0
 28 29  2  0
 29 11  1  0
 10 30  1  0
 30 31  2  0
 31  7  1  0
M  END
> <assay_chembl_id>
CHEMBL1039194

> <assay_description>
Antiproliferative activity against PTEN deficient human LNCAP cells after 3 days by MTS assay

> <document_journal>
Bioorg Med Chem Lett

> <molecule_chembl_id>
CHEMBL584734

> <standard_value>
16

> <IC50_uM>
0.016

> <Activity>
Yes

> <Canonical_Smiles>
CCNC(=O)Nc1ccc(-c2nc(N3CC4CCC(C3)O4)c3cnn(CC)c3n2)cc1

$$$$

  SciTegic03142313312D

 34 38  0  0  0  0            999 V2000
    9.0758   -8.2712    0.0000 C   0  0
    7.7795   -7.5165    0.0000 C   0  0
    7.7840   -6.0157    0.0000 N   0  0
    6.4870   -5.2605    0.0000 C   0  0
    5.1855   -6.0062    0.0000 O   0  0
    6.4915   -3.7597    0.0000 N   0  0
    5.1945   -3.0045    0.0000 C   0  0
    5.1969   -1.5045    0.0000 C   0  0
    3.8991   -0.7525    0.0000 C   0  0
    2.5987   -1.5004    0.0000 C   0  0
    1.2990   -0.7500    0.0000 C   0  0
    1.2990    0.7500    0.0000 N   0  0
    0.0000    1.5000    0.0000 C   0  0
    0.0000    3.0008    0.0000 N   0  0
    0.3976    4.0929    0.0000 C   0  0
    1.9160    5.0370    0.0000 C   0  0  3  0  0  0
    3.4405    4.4165    0.0000 C   0  0
    2.0983    4.3984    0.0000 C   0  0
    0.8565    5.1517    0.0000 C   0  0  3  0  0  0
   -0.5573    4.3156    0.0000 C   0  0
    1.3526    6.4269    0.0000 O   0  0
   -1.2990    0.7500    0.0000 C   0  0
   -2.7248    1.2135    0.0000 C   0  0
   -3.6065    0.0000    0.0000 N   0  0
   -2.7248   -1.2135    0.0000 N   0  0
   -3.1904   -2.6376    0.0000 C   0  0
   -4.6588   -2.9478    0.0000 C   0  0
   -5.1253   -4.3743    0.0000 N   0  0
   -6.5929   -4.6844    0.0000 C   0  0
   -4.1233   -5.4906    0.0000 C   0  0
   -1.2990   -0.7500    0.0000 C   0  0
    0.0000   -1.5000    0.0000 N   0  0
    2.5965   -3.0004    0.0000 C   0  0
    3.8943   -3.7525    0.0000 C   0  0
  1  2  1  0
  2  3  1  0
  3  4  1  0
  4  5  2  0
  4  6  1  0
  6  7  1  0
  7  8  2  0
  8  9  1  0
  9 10  2  0
 10 11  1  0
 11 12  2  0
 12 13  1  0
 13 14  1  0
 14 15  1  0
 16 15  1  4
 16 17  1  0
 17 18  1  0
 19 18  1  4
 19 20  1  0
 20 14  1  0
 19 21  1  0
 21 16  1  0
 13 22  2  0
 22 23  1  0
 23 24  2  0
 24 25  1  0
 25 26  1  0
 26 27  1  0
 27 28  1  0
 28 29  1  0
 28 30  1  0
 25 31  1  0
 31 22  1  0
 31 32  2  0
 32 11  1  0
 10 33  1  0
 33 34  2  0
 34  7  1  0
M  END
> <assay_chembl_id>
CHEMBL1039194

> <assay_description>
Antiproliferative activity against PTEN deficient human LNCAP cells after 3 days by MTS assay

> <document_journal>
Bioorg Med Chem Lett

> <molecule_chembl_id>
CHEMBL585126

> <standard_value>
280

> <IC50_uM>
0.28

> <Activity>
Yes

> <Canonical_Smiles>
CCNC(=O)Nc1ccc(-c2nc(N3CC4CCC(C3)O4)c3cnn(CCN(C)C)c3n2)cc1

$$$$

  SciTegic03142313312D

 34 38  0  0  0  0            999 V2000
   -0.2237   -5.5078    0.0000 C   0  0
   -0.6890   -4.0818    0.0000 C   0  0
    0.3114   -2.9665    0.0000 N   0  0
    1.8032   -3.1233    0.0000 N   0  0
    2.4133   -1.7530    0.0000 C   0  0
    1.2990   -0.7500    0.0000 C   0  0
    1.2990    0.7500    0.0000 C   0  0
    2.5987    1.5004    0.0000 N   0  0
    3.7433    1.7022    0.0000 C   0  0
    5.3202    0.8592    0.0000 C   0  0  3  0  0  0
    5.5451   -0.7713    0.0000 C   0  0
    4.8582    0.3820    0.0000 C   0  0
    4.8897    1.8341    0.0000 C   0  0  3  0  0  0
    3.4588    2.6405    0.0000 C   0  0
    6.2422    2.0421    0.0000 O   0  0
    0.0000    1.5000    0.0000 N   0  0
   -1.2990    0.7500    0.0000 C   0  0
   -2.5987    1.5004    0.0000 C   0  0
   -2.6012    3.0004    0.0000 C   0  0
   -3.9015    3.7484    0.0000 C   0  0
   -5.1993    2.9963    0.0000 C   0  0
   -6.5018    3.7420    0.0000 N   0  0
   -7.7993    2.9876    0.0000 C   0  0
   -7.7943    1.4876    0.0000 O   0  0
   -9.1017    3.7333    0.0000 N   0  0
  -10.3992    2.9790    0.0000 C   0  0
  -11.7017    3.7246    0.0000 C   0  0
  -12.9992    2.9703    0.0000 N   0  0
  -14.3010    3.7156    0.0000 C   0  0
  -12.9942    1.4703    0.0000 C   0  0
   -5.1969    1.4963    0.0000 C   0  0
   -3.8967    0.7484    0.0000 C   0  0
   -1.2990   -0.7500    0.0000 N   0  0
    0.0000   -1.5000    0.0000 C   0  0
  1  2  1  0
  2  3  1  0
  3  4  1  0
  4  5  2  0
  5  6  1  0
  6  7  2  0
  7  8  1  0
  8  9  1  0
 10  9  1  4
 10 11  1  0
 11 12  1  0
 13 12  1  4
 13 14  1  0
 14  8  1  0
 13 15  1  0
 15 10  1  0
  7 16  1  0
 16 17  2  0
 17 18  1  0
 18 19  2  0
 19 20  1  0
 20 21  2  0
 21 22  1  0
 22 23  1  0
 23 24  2  0
 23 25  1  0
 25 26  1  0
 26 27  1  0
 27 28  1  0
 28 29  1  0
 28 30  1  0
 21 31  1  0
 31 32  2  0
 32 18  1  0
 17 33  1  0
 33 34  2  0
 34  6  1  0
 34  3  1  0
M  END
> <assay_chembl_id>
CHEMBL1039194

> <assay_description>
Antiproliferative activity against PTEN deficient human LNCAP cells after 3 days by MTS assay

> <document_journal>
Bioorg Med Chem Lett

> <molecule_chembl_id>
CHEMBL565389

> <standard_value>
350

> <IC50_uM>
0.35

> <Activity>
Yes

> <Canonical_Smiles>
CCn1ncc2c(N3CC4CCC(C3)O4)nc(-c3ccc(NC(=O)NCCN(C)C)cc3)nc21

$$$$

  SciTegic03142313312D

 38 43  0  0  0  0            999 V2000
   -0.7603   -8.0518    0.0000 C   0  0
   -1.2256   -6.6258    0.0000 N   0  0
   -2.6933   -6.3162    0.0000 C   0  0
   -0.2234   -5.5086    0.0000 C   0  0
   -0.6890   -4.0818    0.0000 C   0  0
    0.3114   -2.9665    0.0000 N   0  0
    1.8032   -3.1233    0.0000 N   0  0
    2.4133   -1.7530    0.0000 C   0  0
    1.2990   -0.7500    0.0000 C   0  0
    1.2990    0.7500    0.0000 C   0  0
    2.5987    1.5004    0.0000 N   0  0
    3.7433    1.7022    0.0000 C   0  0
    5.3202    0.8592    0.0000 C   0  0  3  0  0  0
    5.5451   -0.7713    0.0000 C   0  0
    4.8582    0.3820    0.0000 C   0  0
    4.8897    1.8341    0.0000 C   0  0  3  0  0  0
    3.4588    2.6405    0.0000 C   0  0
    6.2422    2.0421    0.0000 O   0  0
    0.0000    1.5000    0.0000 N   0  0
   -1.2990    0.7500    0.0000 C   0  0
   -2.5987    1.5004    0.0000 C   0  0
   -2.6012    3.0004    0.0000 C   0  0
   -3.9015    3.7484    0.0000 C   0  0
   -5.1993    2.9963    0.0000 C   0  0
   -6.5018    3.7420    0.0000 N   0  0
   -7.7993    2.9876    0.0000 C   0  0
   -7.7943    1.4876    0.0000 O   0  0
   -9.1017    3.7333    0.0000 N   0  0
  -10.3992    2.9790    0.0000 C   0  0
  -11.7021    3.7223    0.0000 C   0  0
  -12.9973    2.9658    0.0000 C   0  0
  -12.9898    1.4658    0.0000 C   0  0
  -11.6870    0.7224    0.0000 N   0  0
  -10.3917    1.4789    0.0000 C   0  0
   -5.1969    1.4963    0.0000 C   0  0
   -3.8967    0.7484    0.0000 C   0  0
   -1.2990   -0.7500    0.0000 N   0  0
    0.0000   -1.5000    0.0000 C   0  0
  1  2  1  0
  2  3  1  0
  2  4  1  0
  4  5  1  0
  5  6  1  0
  6  7  1  0
  7  8  2  0
  8  9  1  0
  9 10  2  0
 10 11  1  0
 11 12  1  0
 13 12  1  4
 13 14  1  0
 14 15  1  0
 16 15  1  4
 16 17  1  0
 17 11  1  0
 16 18  1  0
 18 13  1  0
 10 19  1  0
 19 20  2  0
 20 21  1  0
 21 22  2  0
 22 23  1  0
 23 24  2  0
 24 25  1  0
 25 26  1  0
 26 27  2  0
 26 28  1  0
 28 29  1  0
 29 30  2  0
 30 31  1  0
 31 32  2  0
 32 33  1  0
 33 34  2  0
 34 29  1  0
 24 35  1  0
 35 36  2  0
 36 21  1  0
 20 37  1  0
 37 38  2  0
 38  9  1  0
 38  6  1  0
M  END
> <assay_chembl_id>
CHEMBL1039194

> <assay_description>
Antiproliferative activity against PTEN deficient human LNCAP cells after 3 days by MTS assay

> <document_journal>
Bioorg Med Chem Lett

> <molecule_chembl_id>
CHEMBL565808

> <standard_value>
50

> <IC50_uM>
0.05

> <Activity>
Yes

> <Canonical_Smiles>
CN(C)CCn1ncc2c(N3CC4CCC(C3)O4)nc(-c3ccc(NC(=O)Nc4cccnc4)cc3)nc21

$$$$

  SciTegic03142313312D

 37 42  0  0  0  0            999 V2000
   -0.2237   -5.5078    0.0000 C   0  0
   -0.6890   -4.0818    0.0000 C   0  0
    0.3114   -2.9665    0.0000 N   0  0
    1.8032   -3.1233    0.0000 N   0  0
    2.4133   -1.7530    0.0000 C   0  0
    1.2990   -0.7500    0.0000 C   0  0
    1.2990    0.7500    0.0000 C   0  0
    2.5987    1.5004    0.0000 N   0  0
    3.7433    1.7022    0.0000 C   0  0
    5.3202    0.8592    0.0000 C   0  0  3  0  0  0
    5.5451   -0.7713    0.0000 C   0  0
    4.8582    0.3820    0.0000 C   0  0
    4.8897    1.8341    0.0000 C   0  0  3  0  0  0
    3.4588    2.6405    0.0000 C   0  0
    6.2422    2.0421    0.0000 O   0  0
    0.0000    1.5000    0.0000 N   0  0
   -1.2990    0.7500    0.0000 C   0  0
   -2.5987    1.5004    0.0000 C   0  0
   -2.6012    3.0004    0.0000 C   0  0
   -3.9015    3.7484    0.0000 C   0  0
   -5.1993    2.9963    0.0000 C   0  0
   -6.5018    3.7420    0.0000 N   0  0
   -7.7993    2.9876    0.0000 C   0  0
   -7.7943    1.4876    0.0000 O   0  0
   -9.1017    3.7333    0.0000 N   0  0
  -10.3992    2.9790    0.0000 C   0  0
  -11.7021    3.7223    0.0000 C   0  0
  -12.9973    2.9658    0.0000 C   0  0
  -12.9898    1.4658    0.0000 C   0  0
  -14.2842    0.7062    0.0000 N   0  0
  -14.2745   -0.7938    0.0000 C   0  0
  -11.6870    0.7224    0.0000 N   0  0
  -10.3917    1.4789    0.0000 C   0  0
   -5.1969    1.4963    0.0000 C   0  0
   -3.8967    0.7484    0.0000 C   0  0
   -1.2990   -0.7500    0.0000 N   0  0
    0.0000   -1.5000    0.0000 C   0  0
  1  2  1  0
  2  3  1  0
  3  4  1  0
  4  5  2  0
  5  6  1  0
  6  7  2  0
  7  8  1  0
  8  9  1  0
 10  9  1  4
 10 11  1  0
 11 12  1  0
 13 12  1  4
 13 14  1  0
 14  8  1  0
 13 15  1  0
 15 10  1  0
  7 16  1  0
 16 17  2  0
 17 18  1  0
 18 19  2  0
 19 20  1  0
 20 21  2  0
 21 22  1  0
 22 23  1  0
 23 24  2  0
 23 25  1  0
 25 26  1  0
 26 27  2  0
 27 28  1  0
 28 29  2  0
 29 30  1  0
 30 31  1  0
 29 32  1  0
 32 33  2  0
 33 26  1  0
 21 34  1  0
 34 35  2  0
 35 18  1  0
 17 36  1  0
 36 37  2  0
 37  6  1  0
 37  3  1  0
M  END
> <assay_chembl_id>
CHEMBL1039194

> <assay_description>
Antiproliferative activity against PTEN deficient human LNCAP cells after 3 days by MTS assay

> <document_journal>
Bioorg Med Chem Lett

> <molecule_chembl_id>
CHEMBL567694

> <standard_value>
17

> <IC50_uM>
0.017

> <Activity>
Yes

> <Canonical_Smiles>
CCn1ncc2c(N3CC4CCC(C3)O4)nc(-c3ccc(NC(=O)Nc4ccc(NC)nc4)cc3)nc21

$$$$

  SciTegic03142313312D

 38 43  0  0  0  0            999 V2000
   -0.2237   -5.5078    0.0000 C   0  0
   -0.6890   -4.0818    0.0000 C   0  0
    0.3114   -2.9665    0.0000 N   0  0
    1.8032   -3.1233    0.0000 N   0  0
    2.4133   -1.7530    0.0000 C   0  0
    1.2990   -0.7500    0.0000 C   0  0
    1.2990    0.7500    0.0000 C   0  0
    2.5987    1.5004    0.0000 N   0  0
    3.7433    1.7022    0.0000 C   0  0
    5.3202    0.8592    0.0000 C   0  0  3  0  0  0
    5.5451   -0.7713    0.0000 C   0  0
    4.8582    0.3820    0.0000 C   0  0
    4.8897    1.8341    0.0000 C   0  0  3  0  0  0
    3.4588    2.6405    0.0000 C   0  0
    6.2422    2.0421    0.0000 O   0  0
    0.0000    1.5000    0.0000 N   0  0
   -1.2990    0.7500    0.0000 C   0  0
   -2.5987    1.5004    0.0000 C   0  0
   -2.6012    3.0004    0.0000 C   0  0
   -3.9015    3.7484    0.0000 C   0  0
   -5.1993    2.9963    0.0000 C   0  0
   -6.5018    3.7420    0.0000 N   0  0
   -7.7993    2.9876    0.0000 C   0  0
   -7.7943    1.4876    0.0000 O   0  0
   -9.1017    3.7333    0.0000 N   0  0
  -10.3992    2.9790    0.0000 C   0  0
  -11.7021    3.7223    0.0000 C   0  0
  -12.9973    2.9658    0.0000 C   0  0
  -12.9898    1.4658    0.0000 C   0  0
  -14.2842    0.7062    0.0000 N   0  0
  -14.2745   -0.7938    0.0000 C   0  0
  -15.5883    1.4473    0.0000 C   0  0
  -11.6870    0.7224    0.0000 N   0  0
  -10.3917    1.4789    0.0000 C   0  0
   -5.1969    1.4963    0.0000 C   0  0
   -3.8967    0.7484    0.0000 C   0  0
   -1.2990   -0.7500    0.0000 N   0  0
    0.0000   -1.5000    0.0000 C   0  0
  1  2  1  0
  2  3  1  0
  3  4  1  0
  4  5  2  0
  5  6  1  0
  6  7  2  0
  7  8  1  0
  8  9  1  0
 10  9  1  4
 10 11  1  0
 11 12  1  0
 13 12  1  4
 13 14  1  0
 14  8  1  0
 13 15  1  0
 15 10  1  0
  7 16  1  0
 16 17  2  0
 17 18  1  0
 18 19  2  0
 19 20  1  0
 20 21  2  0
 21 22  1  0
 22 23  1  0
 23 24  2  0
 23 25  1  0
 25 26  1  0
 26 27  2  0
 27 28  1  0
 28 29  2  0
 29 30  1  0
 30 31  1  0
 30 32  1  0
 29 33  1  0
 33 34  2  0
 34 26  1  0
 21 35  1  0
 35 36  2  0
 36 18  1  0
 17 37  1  0
 37 38  2  0
 38  6  1  0
 38  3  1  0
M  END
> <assay_chembl_id>
CHEMBL1039194

> <assay_description>
Antiproliferative activity against PTEN deficient human LNCAP cells after 3 days by MTS assay

> <document_journal>
Bioorg Med Chem Lett

> <molecule_chembl_id>
CHEMBL565987

> <standard_value>
6

> <IC50_uM>
0.006

> <Activity>
Yes

> <Canonical_Smiles>
CCn1ncc2c(N3CC4CCC(C3)O4)nc(-c3ccc(NC(=O)Nc4ccc(N(C)C)nc4)cc3)nc21

$$$$

  SciTegic03142313312D

 41 47  0  0  0  0            999 V2000
   -0.2237   -5.5078    0.0000 C   0  0
   -0.6890   -4.0818    0.0000 C   0  0
    0.3114   -2.9665    0.0000 N   0  0
    1.8032   -3.1233    0.0000 N   0  0
    2.4133   -1.7530    0.0000 C   0  0
    1.2990   -0.7500    0.0000 C   0  0
    1.2990    0.7500    0.0000 C   0  0
    2.5987    1.5004    0.0000 N   0  0
    3.7433    1.7022    0.0000 C   0  0
    5.3202    0.8592    0.0000 C   0  0  3  0  0  0
    5.5451   -0.7713    0.0000 C   0  0
    4.8582    0.3820    0.0000 C   0  0
    4.8897    1.8341    0.0000 C   0  0  3  0  0  0
    3.4588    2.6405    0.0000 C   0  0
    6.2422    2.0421    0.0000 O   0  0
    0.0000    1.5000    0.0000 N   0  0
   -1.2990    0.7500    0.0000 C   0  0
   -2.5987    1.5004    0.0000 C   0  0
   -2.6012    3.0004    0.0000 C   0  0
   -3.9015    3.7484    0.0000 C   0  0
   -5.1993    2.9963    0.0000 C   0  0
   -6.5018    3.7420    0.0000 N   0  0
   -7.7993    2.9876    0.0000 C   0  0
   -7.7943    1.4876    0.0000 O   0  0
   -9.1017    3.7333    0.0000 N   0  0
  -10.3992    2.9790    0.0000 C   0  0
  -11.7021    3.7223    0.0000 C   0  0
  -12.9973    2.9658    0.0000 C   0  0
  -12.9898    1.4658    0.0000 C   0  0
  -14.2856    0.7089    0.0000 N   0  0
  -15.5897    1.4502    0.0000 C   0  0
  -16.8838    0.6916    0.0000 C   0  0
  -16.8738   -0.8084    0.0000 O   0  0
  -15.5698   -1.5498    0.0000 C   0  0
  -14.2758   -0.7912    0.0000 C   0  0
  -11.6870    0.7224    0.0000 N   0  0
  -10.3917    1.4789    0.0000 C   0  0
   -5.1969    1.4963    0.0000 C   0  0
   -3.8967    0.7484    0.0000 C   0  0
   -1.2990   -0.7500    0.0000 N   0  0
    0.0000   -1.5000    0.0000 C   0  0
  1  2  1  0
  2  3  1  0
  3  4  1  0
  4  5  2  0
  5  6  1  0
  6  7  2  0
  7  8  1  0
  8  9  1  0
 10  9  1  4
 10 11  1  0
 11 12  1  0
 13 12  1  4
 13 14  1  0
 14  8  1  0
 13 15  1  0
 15 10  1  0
  7 16  1  0
 16 17  2  0
 17 18  1  0
 18 19  2  0
 19 20  1  0
 20 21  2  0
 21 22  1  0
 22 23  1  0
 23 24  2  0
 23 25  1  0
 25 26  1  0
 26 27  2  0
 27 28  1  0
 28 29  2  0
 29 30  1  0
 30 31  1  0
 31 32  1  0
 32 33  1  0
 33 34  1  0
 34 35  1  0
 35 30  1  0
 29 36  1  0
 36 37  2  0
 37 26  1  0
 21 38  1  0
 38 39  2  0
 39 18  1  0
 17 40  1  0
 40 41  2  0
 41  6  1  0
 41  3  1  0
M  END
> <assay_chembl_id>
CHEMBL1039194

> <assay_description>
Antiproliferative activity against PTEN deficient human LNCAP cells after 3 days by MTS assay

> <document_journal>
Bioorg Med Chem Lett

> <molecule_chembl_id>
CHEMBL576304

> <standard_value>
0.8

> <IC50_uM>
0.0008

> <Activity>
Yes

> <Canonical_Smiles>
CCn1ncc2c(N3CC4CCC(C3)O4)nc(-c3ccc(NC(=O)Nc4ccc(N5CCOCC5)nc4)cc3)nc21

$$$$

  SciTegic03142313312D

 35 40  0  0  0  0            999 V2000
   -0.2237   -5.5078    0.0000 C   0  0
   -0.6890   -4.0818    0.0000 C   0  0
    0.3114   -2.9665    0.0000 N   0  0
    1.8032   -3.1233    0.0000 N   0  0
    2.4133   -1.7530    0.0000 C   0  0
    1.2990   -0.7500    0.0000 C   0  0
    1.2990    0.7500    0.0000 C   0  0
    2.5987    1.5004    0.0000 N   0  0
    3.7433    1.7022    0.0000 C   0  0
    5.3202    0.8592    0.0000 C   0  0  3  0  0  0
    5.5451   -0.7713    0.0000 C   0  0
    4.8582    0.3820    0.0000 C   0  0
    4.8897    1.8341    0.0000 C   0  0  3  0  0  0
    3.4588    2.6405    0.0000 C   0  0
    6.2422    2.0421    0.0000 O   0  0
    0.0000    1.5000    0.0000 N   0  0
   -1.2990    0.7500    0.0000 C   0  0
   -2.5987    1.5004    0.0000 C   0  0
   -2.6012    3.0004    0.0000 C   0  0
   -3.9015    3.7484    0.0000 C   0  0
   -5.1993    2.9963    0.0000 C   0  0
   -6.5018    3.7420    0.0000 N   0  0
   -7.7993    2.9876    0.0000 C   0  0
   -7.7943    1.4876    0.0000 O   0  0
   -9.1017    3.7333    0.0000 N   0  0
  -10.3992    2.9790    0.0000 C   0  0
  -11.7021    3.7223    0.0000 C   0  0
  -12.9973    2.9658    0.0000 C   0  0
  -12.9898    1.4658    0.0000 C   0  0
  -11.6870    0.7224    0.0000 C   0  0
  -10.3917    1.4789    0.0000 C   0  0
   -5.1969    1.4963    0.0000 C   0  0
   -3.8967    0.7484    0.0000 C   0  0
   -1.2990   -0.7500    0.0000 N   0  0
    0.0000   -1.5000    0.0000 C   0  0
  1  2  1  0
  2  3  1  0
  3  4  1  0
  4  5  2  0
  5  6  1  0
  6  7  2  0
  7  8  1  0
  8  9  1  0
 10  9  1  4
 10 11  1  0
 11 12  1  0
 13 12  1  4
 13 14  1  0
 14  8  1  0
 13 15  1  0
 15 10  1  0
  7 16  1  0
 16 17  2  0
 17 18  1  0
 18 19  2  0
 19 20  1  0
 20 21  2  0
 21 22  1  0
 22 23  1  0
 23 24  2  0
 23 25  1  0
 25 26  1  0
 26 27  2  0
 27 28  1  0
 28 29  2  0
 29 30  1  0
 30 31  2  0
 31 26  1  0
 21 32  1  0
 32 33  2  0
 33 18  1  0
 17 34  1  0
 34 35  2  0
 35  6  1  0
 35  3  1  0
M  END
> <assay_chembl_id>
CHEMBL1039194

> <assay_description>
Antiproliferative activity against PTEN deficient human LNCAP cells after 3 days by MTS assay

> <document_journal>
Bioorg Med Chem Lett

> <molecule_chembl_id>
CHEMBL565787

> <standard_value>
0.8

> <IC50_uM>
0.0008

> <Activity>
Yes

> <Canonical_Smiles>
CCn1ncc2c(N3CC4CCC(C3)O4)nc(-c3ccc(NC(=O)Nc4ccccc4)cc3)nc21

$$$$

  SciTegic03142313312D

 40 46  0  0  0  0            999 V2000
   -0.2237   -5.5078    0.0000 C   0  0
   -0.6890   -4.0818    0.0000 C   0  0
    0.3114   -2.9665    0.0000 N   0  0
    1.8032   -3.1233    0.0000 N   0  0
    2.4133   -1.7530    0.0000 C   0  0
    1.2990   -0.7500    0.0000 C   0  0
    1.2990    0.7500    0.0000 C   0  0
    2.5987    1.5004    0.0000 N   0  0
    3.7433    1.7022    0.0000 C   0  0
    5.3202    0.8592    0.0000 C   0  0  3  0  0  0
    5.5451   -0.7713    0.0000 C   0  0
    4.8582    0.3820    0.0000 C   0  0
    4.8897    1.8341    0.0000 C   0  0  3  0  0  0
    3.4588    2.6405    0.0000 C   0  0
    6.2422    2.0421    0.0000 O   0  0
    0.0000    1.5000    0.0000 N   0  0
   -1.2990    0.7500    0.0000 C   0  0
   -2.5987    1.5004    0.0000 C   0  0
   -2.6012    3.0004    0.0000 C   0  0
   -3.9015    3.7484    0.0000 C   0  0
   -5.1993    2.9963    0.0000 C   0  0
   -6.5018    3.7420    0.0000 N   0  0
   -7.7993    2.9876    0.0000 C   0  0
   -7.7943    1.4876    0.0000 O   0  0
   -9.1017    3.7333    0.0000 N   0  0
  -10.3992    2.9790    0.0000 C   0  0
  -11.7021    3.7223    0.0000 C   0  0
  -12.9973    2.9658    0.0000 C   0  0
  -12.9898    1.4658    0.0000 C   0  0
  -14.2856    0.7089    0.0000 N   0  0
  -15.6412    1.3209    0.0000 C   0  0
  -16.6374    0.1995    0.0000 C   0  0
  -15.8788   -1.0945    0.0000 C   0  0
  -14.4137   -0.7729    0.0000 C   0  0
  -11.6870    0.7224    0.0000 C   0  0
  -10.3917    1.4789    0.0000 C   0  0
   -5.1969    1.4963    0.0000 C   0  0
   -3.8967    0.7484    0.0000 C   0  0
   -1.2990   -0.7500    0.0000 N   0  0
    0.0000   -1.5000    0.0000 C   0  0
  1  2  1  0
  2  3  1  0
  3  4  1  0
  4  5  2  0
  5  6  1  0
  6  7  2  0
  7  8  1  0
  8  9  1  0
 10  9  1  4
 10 11  1  0
 11 12  1  0
 13 12  1  4
 13 14  1  0
 14  8  1  0
 13 15  1  0
 15 10  1  0
  7 16  1  0
 16 17  2  0
 17 18  1  0
 18 19  2  0
 19 20  1  0
 20 21  2  0
 21 22  1  0
 22 23  1  0
 23 24  2  0
 23 25  1  0
 25 26  1  0
 26 27  2  0
 27 28  1  0
 28 29  2  0
 29 30  1  0
 30 31  1  0
 31 32  1  0
 32 33  1  0
 33 34  1  0
 34 30  1  0
 29 35  1  0
 35 36  2  0
 36 26  1  0
 21 37  1  0
 37 38  2  0
 38 18  1  0
 17 39  1  0
 39 40  2  0
 40  6  1  0
 40  3  1  0
M  END
> <assay_chembl_id>
CHEMBL1039194

> <assay_description>
Antiproliferative activity against PTEN deficient human LNCAP cells after 3 days by MTS assay

> <document_journal>
Bioorg Med Chem Lett

> <molecule_chembl_id>
CHEMBL585397

> <standard_value>
55

> <IC50_uM>
0.055

> <Activity>
Yes

> <Canonical_Smiles>
CCn1ncc2c(N3CC4CCC(C3)O4)nc(-c3ccc(NC(=O)Nc4ccc(N5CCCC5)cc4)cc3)nc21

$$$$

  SciTegic03142313312D

 41 46  0  0  0  0            999 V2000
   -0.2237   -5.5078    0.0000 C   0  0
   -0.6890   -4.0818    0.0000 C   0  0
    0.3114   -2.9665    0.0000 N   0  0
    1.8032   -3.1233    0.0000 N   0  0
    2.4133   -1.7530    0.0000 C   0  0
    1.2990   -0.7500    0.0000 C   0  0
    1.2990    0.7500    0.0000 C   0  0
    2.5987    1.5004    0.0000 N   0  0
    3.7433    1.7022    0.0000 C   0  0
    5.3202    0.8592    0.0000 C   0  0  3  0  0  0
    5.5451   -0.7713    0.0000 C   0  0
    4.8582    0.3820    0.0000 C   0  0
    4.8897    1.8341    0.0000 C   0  0  3  0  0  0
    3.4588    2.6405    0.0000 C   0  0
    6.2422    2.0421    0.0000 O   0  0
    0.0000    1.5000    0.0000 N   0  0
   -1.2990    0.7500    0.0000 C   0  0
   -2.5987    1.5004    0.0000 C   0  0
   -2.6012    3.0004    0.0000 C   0  0
   -3.9015    3.7484    0.0000 C   0  0
   -5.1993    2.9963    0.0000 C   0  0
   -6.5018    3.7420    0.0000 N   0  0
   -7.7993    2.9876    0.0000 C   0  0
   -7.7943    1.4876    0.0000 O   0  0
   -9.1017    3.7333    0.0000 N   0  0
  -10.3992    2.9790    0.0000 C   0  0
  -11.7021    3.7223    0.0000 C   0  0
  -12.9973    2.9658    0.0000 C   0  0
  -12.9898    1.4658    0.0000 C   0  0
  -14.2842    0.7062    0.0000 N   0  0
  -14.2744   -0.7946    0.0000 C   0  0
  -15.5688   -1.5543    0.0000 C   0  0
  -15.5591   -3.0551    0.0000 N   0  0
  -16.8528   -3.8143    0.0000 C   0  0
  -14.2550   -3.7962    0.0000 C   0  0
  -11.6870    0.7224    0.0000 C   0  0
  -10.3917    1.4789    0.0000 C   0  0
   -5.1969    1.4963    0.0000 C   0  0
   -3.8967    0.7484    0.0000 C   0  0
   -1.2990   -0.7500    0.0000 N   0  0
    0.0000   -1.5000    0.0000 C   0  0
  1  2  1  0
  2  3  1  0
  3  4  1  0
  4  5  2  0
  5  6  1  0
  6  7  2  0
  7  8  1  0
  8  9  1  0
 10  9  1  4
 10 11  1  0
 11 12  1  0
 13 12  1  4
 13 14  1  0
 14  8  1  0
 13 15  1  0
 15 10  1  0
  7 16  1  0
 16 17  2  0
 17 18  1  0
 18 19  2  0
 19 20  1  0
 20 21  2  0
 21 22  1  0
 22 23  1  0
 23 24  2  0
 23 25  1  0
 25 26  1  0
 26 27  2  0
 27 28  1  0
 28 29  2  0
 29 30  1  0
 30 31  1  0
 31 32  1  0
 32 33  1  0
 33 34  1  0
 33 35  1  0
 29 36  1  0
 36 37  2  0
 37 26  1  0
 21 38  1  0
 38 39  2  0
 39 18  1  0
 17 40  1  0
 40 41  2  0
 41  6  1  0
 41  3  1  0
M  END
> <assay_chembl_id>
CHEMBL1039194

> <assay_description>
Antiproliferative activity against PTEN deficient human LNCAP cells after 3 days by MTS assay

> <document_journal>
Bioorg Med Chem Lett

> <molecule_chembl_id>
CHEMBL576507

> <standard_value>
2.8

> <IC50_uM>
0.0028

> <Activity>
Yes

> <Canonical_Smiles>
CCn1ncc2c(N3CC4CCC(C3)O4)nc(-c3ccc(NC(=O)Nc4ccc(NCCN(C)C)cc4)cc3)nc21

$$$$

  SciTegic03142313312D

 42 47  0  0  0  0            999 V2000
   -0.2237   -5.5078    0.0000 C   0  0
   -0.6890   -4.0818    0.0000 C   0  0
    0.3114   -2.9665    0.0000 N   0  0
    1.8032   -3.1233    0.0000 N   0  0
    2.4133   -1.7530    0.0000 C   0  0
    1.2990   -0.7500    0.0000 C   0  0
    1.2990    0.7500    0.0000 C   0  0
    2.5987    1.5004    0.0000 N   0  0
    3.7433    1.7022    0.0000 C   0  0
    5.3202    0.8592    0.0000 C   0  0  3  0  0  0
    5.5451   -0.7713    0.0000 C   0  0
    4.8582    0.3820    0.0000 C   0  0
    4.8897    1.8341    0.0000 C   0  0  3  0  0  0
    3.4588    2.6405    0.0000 C   0  0
    6.2422    2.0421    0.0000 O   0  0
    0.0000    1.5000    0.0000 N   0  0
   -1.2990    0.7500    0.0000 C   0  0
   -2.5987    1.5004    0.0000 C   0  0
   -2.6012    3.0004    0.0000 C   0  0
   -3.9015    3.7484    0.0000 C   0  0
   -5.1993    2.9963    0.0000 C   0  0
   -6.5018    3.7420    0.0000 N   0  0
   -7.7993    2.9876    0.0000 C   0  0
   -7.7943    1.4876    0.0000 O   0  0
   -9.1017    3.7333    0.0000 N   0  0
  -10.3992    2.9790    0.0000 C   0  0
  -11.7021    3.7223    0.0000 C   0  0
  -12.9973    2.9658    0.0000 C   0  0
  -12.9898    1.4658    0.0000 C   0  0
  -14.2842    0.7062    0.0000 N   0  0
  -15.5883    1.4473    0.0000 C   0  0
  -14.2744   -0.7946    0.0000 C   0  0
  -15.5688   -1.5543    0.0000 C   0  0
  -15.5591   -3.0551    0.0000 N   0  0
  -16.8528   -3.8143    0.0000 C   0  0
  -14.2550   -3.7962    0.0000 C   0  0
  -11.6870    0.7224    0.0000 C   0  0
  -10.3917    1.4789    0.0000 C   0  0
   -5.1969    1.4963    0.0000 C   0  0
   -3.8967    0.7484    0.0000 C   0  0
   -1.2990   -0.7500    0.0000 N   0  0
    0.0000   -1.5000    0.0000 C   0  0
  1  2  1  0
  2  3  1  0
  3  4  1  0
  4  5  2  0
  5  6  1  0
  6  7  2  0
  7  8  1  0
  8  9  1  0
 10  9  1  4
 10 11  1  0
 11 12  1  0
 13 12  1  4
 13 14  1  0
 14  8  1  0
 13 15  1  0
 15 10  1  0
  7 16  1  0
 16 17  2  0
 17 18  1  0
 18 19  2  0
 19 20  1  0
 20 21  2  0
 21 22  1  0
 22 23  1  0
 23 24  2  0
 23 25  1  0
 25 26  1  0
 26 27  2  0
 27 28  1  0
 28 29  2  0
 29 30  1  0
 30 31  1  0
 30 32  1  0
 32 33  1  0
 33 34  1  0
 34 35  1  0
 34 36  1  0
 29 37  1  0
 37 38  2  0
 38 26  1  0
 21 39  1  0
 39 40  2  0
 40 18  1  0
 17 41  1  0
 41 42  2  0
 42  6  1  0
 42  3  1  0
M  END
> <assay_chembl_id>
CHEMBL1039194

> <assay_description>
Antiproliferative activity against PTEN deficient human LNCAP cells after 3 days by MTS assay

> <document_journal>
Bioorg Med Chem Lett

> <molecule_chembl_id>
CHEMBL570870

> <standard_value>
0.8

> <IC50_uM>
0.0008

> <Activity>
Yes

> <Canonical_Smiles>
CCn1ncc2c(N3CC4CCC(C3)O4)nc(-c3ccc(NC(=O)Nc4ccc(N(C)CCN(C)C)cc4)cc3)nc21

$$$$

  SciTegic03142313312D

 39 44  0  0  0  0            999 V2000
   -0.2237   -5.5078    0.0000 C   0  0
   -0.6890   -4.0818    0.0000 C   0  0
    0.3114   -2.9665    0.0000 N   0  0
    1.8032   -3.1233    0.0000 N   0  0
    2.4133   -1.7530    0.0000 C   0  0
    1.2990   -0.7500    0.0000 C   0  0
    1.2990    0.7500    0.0000 C   0  0
    2.5987    1.5004    0.0000 N   0  0
    3.7433    1.7022    0.0000 C   0  0
    5.3202    0.8592    0.0000 C   0  0  3  0  0  0
    5.5451   -0.7713    0.0000 C   0  0
    4.8582    0.3820    0.0000 C   0  0
    4.8897    1.8341    0.0000 C   0  0  3  0  0  0
    3.4588    2.6405    0.0000 C   0  0
    6.2422    2.0421    0.0000 O   0  0
    0.0000    1.5000    0.0000 N   0  0
   -1.2990    0.7500    0.0000 C   0  0
   -2.5987    1.5004    0.0000 C   0  0
   -2.6012    3.0004    0.0000 C   0  0
   -3.9015    3.7484    0.0000 C   0  0
   -5.1993    2.9963    0.0000 C   0  0
   -6.5018    3.7420    0.0000 N   0  0
   -7.7993    2.9876    0.0000 C   0  0
   -7.7943    1.4876    0.0000 O   0  0
   -9.1017    3.7333    0.0000 N   0  0
  -10.3992    2.9790    0.0000 C   0  0
  -11.7021    3.7223    0.0000 C   0  0
  -12.9973    2.9658    0.0000 C   0  0
  -12.9898    1.4658    0.0000 C   0  0
  -14.2842    0.7062    0.0000 C   0  0
  -14.2744   -0.7946    0.0000 N   0  0
  -15.5681   -1.5539    0.0000 C   0  0
  -12.9703   -1.5358    0.0000 C   0  0
  -11.6870    0.7224    0.0000 C   0  0
  -10.3917    1.4789    0.0000 C   0  0
   -5.1969    1.4963    0.0000 C   0  0
   -3.8967    0.7484    0.0000 C   0  0
   -1.2990   -0.7500    0.0000 N   0  0
    0.0000   -1.5000    0.0000 C   0  0
  1  2  1  0
  2  3  1  0
  3  4  1  0
  4  5  2  0
  5  6  1  0
  6  7  2  0
  7  8  1  0
  8  9  1  0
 10  9  1  4
 10 11  1  0
 11 12  1  0
 13 12  1  4
 13 14  1  0
 14  8  1  0
 13 15  1  0
 15 10  1  0
  7 16  1  0
 16 17  2  0
 17 18  1  0
 18 19  2  0
 19 20  1  0
 20 21  2  0
 21 22  1  0
 22 23  1  0
 23 24  2  0
 23 25  1  0
 25 26  1  0
 26 27  2  0
 27 28  1  0
 28 29  2  0
 29 30  1  0
 30 31  1  0
 31 32  1  0
 31 33  1  0
 29 34  1  0
 34 35  2  0
 35 26  1  0
 21 36  1  0
 36 37  2  0
 37 18  1  0
 17 38  1  0
 38 39  2  0
 39  6  1  0
 39  3  1  0
M  END
> <assay_chembl_id>
CHEMBL1039194

> <assay_description>
Antiproliferative activity against PTEN deficient human LNCAP cells after 3 days by MTS assay

> <document_journal>
Bioorg Med Chem Lett

> <molecule_chembl_id>
CHEMBL585206

> <standard_value>
7

> <IC50_uM>
0.007

> <Activity>
Yes

> <Canonical_Smiles>
CCn1ncc2c(N3CC4CCC(C3)O4)nc(-c3ccc(NC(=O)Nc4ccc(CN(C)C)cc4)cc3)nc21

$$$$

  SciTegic03142313312D

 41 46  0  0  0  0            999 V2000
   -0.2237   -5.5078    0.0000 C   0  0
   -0.6890   -4.0818    0.0000 C   0  0
    0.3114   -2.9665    0.0000 N   0  0
    1.8032   -3.1233    0.0000 N   0  0
    2.4133   -1.7530    0.0000 C   0  0
    1.2990   -0.7500    0.0000 C   0  0
    1.2990    0.7500    0.0000 C   0  0
    2.5987    1.5004    0.0000 N   0  0
    3.7433    1.7022    0.0000 C   0  0
    5.3202    0.8592    0.0000 C   0  0  3  0  0  0
    5.5451   -0.7713    0.0000 C   0  0
    4.8582    0.3820    0.0000 C   0  0
    4.8897    1.8341    0.0000 C   0  0  3  0  0  0
    3.4588    2.6405    0.0000 C   0  0
    6.2422    2.0421    0.0000 O   0  0
    0.0000    1.5000    0.0000 N   0  0
   -1.2990    0.7500    0.0000 C   0  0
   -2.5987    1.5004    0.0000 C   0  0
   -2.6012    3.0004    0.0000 C   0  0
   -3.9015    3.7484    0.0000 C   0  0
   -5.1993    2.9963    0.0000 C   0  0
   -6.5018    3.7420    0.0000 N   0  0
   -7.7993    2.9876    0.0000 C   0  0
   -7.7943    1.4876    0.0000 O   0  0
   -9.1017    3.7333    0.0000 N   0  0
  -10.3992    2.9790    0.0000 C   0  0
  -11.7021    3.7223    0.0000 C   0  0
  -12.9973    2.9658    0.0000 C   0  0
  -12.9898    1.4658    0.0000 C   0  0
  -14.2842    0.7062    0.0000 O   0  0
  -14.2744   -0.7946    0.0000 C   0  0
  -15.5688   -1.5543    0.0000 C   0  0
  -15.5591   -3.0551    0.0000 N   0  0
  -16.8528   -3.8143    0.0000 C   0  0
  -14.2550   -3.7962    0.0000 C   0  0
  -11.6870    0.7224    0.0000 C   0  0
  -10.3917    1.4789    0.0000 C   0  0
   -5.1969    1.4963    0.0000 C   0  0
   -3.8967    0.7484    0.0000 C   0  0
   -1.2990   -0.7500    0.0000 N   0  0
    0.0000   -1.5000    0.0000 C   0  0
  1  2  1  0
  2  3  1  0
  3  4  1  0
  4  5  2  0
  5  6  1  0
  6  7  2  0
  7  8  1  0
  8  9  1  0
 10  9  1  4
 10 11  1  0
 11 12  1  0
 13 12  1  4
 13 14  1  0
 14  8  1  0
 13 15  1  0
 15 10  1  0
  7 16  1  0
 16 17  2  0
 17 18  1  0
 18 19  2  0
 19 20  1  0
 20 21  2  0
 21 22  1  0
 22 23  1  0
 23 24  2  0
 23 25  1  0
 25 26  1  0
 26 27  2  0
 27 28  1  0
 28 29  2  0
 29 30  1  0
 30 31  1  0
 31 32  1  0
 32 33  1  0
 33 34  1  0
 33 35  1  0
 29 36  1  0
 36 37  2  0
 37 26  1  0
 21 38  1  0
 38 39  2  0
 39 18  1  0
 17 40  1  0
 40 41  2  0
 41  6  1  0
 41  3  1  0
M  END
> <assay_chembl_id>
CHEMBL1039194

> <assay_description>
Antiproliferative activity against PTEN deficient human LNCAP cells after 3 days by MTS assay

> <document_journal>
Bioorg Med Chem Lett

> <molecule_chembl_id>
CHEMBL570635

> <standard_value>
0.7

> <IC50_uM>
0.0007

> <Activity>
Yes

> <Canonical_Smiles>
CCn1ncc2c(N3CC4CCC(C3)O4)nc(-c3ccc(NC(=O)Nc4ccc(OCCN(C)C)cc4)cc3)nc21

$$$$

  SciTegic03142313312D

 94102  0  0  1  0            999 V2000
    6.7987  -12.9966    0.0000 C   0  0
    7.9194  -11.9995    0.0000 N   0  0
    9.3866  -12.3114    0.0000 C   0  0
   10.1366  -11.0124    0.0000 C   0  0
   11.6264  -10.8527    0.0000 N   0  0
   12.2348   -9.4807    0.0000 C   0  0
   11.3510   -8.2688    0.0000 O   0  0
   13.7271   -9.3208    0.0000 C   0  0
   14.7091  -10.4378    0.0000 C   0  0
   16.0794   -9.8276    0.0000 C   0  0
   17.3785  -10.5740    0.0000 N   0  0
   18.6771   -9.8217    0.0000 C   0  0
   18.6745   -8.3217    0.0000 O   0  0
   19.9785  -10.5694    0.0000 C   0  0
   20.1164  -12.0503    0.0000 C   0  0
   21.5836  -12.3621    0.0000 C   0  0
   22.1959  -13.7295    0.0000 N   0  0
   23.6888  -13.8841    0.0000 C   0  0
   24.5683  -12.6690    0.0000 O   0  0
   24.3021  -15.2539    0.0000 C   0  0
   23.5433  -16.5330    0.0000 N   0  0
   24.5471  -17.6477    0.0000 C   0  0
   24.2388  -19.1139    0.0000 N   0  0
   25.3556  -20.1164    0.0000 C   0  0
   26.7814  -19.6503    0.0000 O   0  0
   25.0468  -21.5851    0.0000 C   0  0  2  0  0  0
   23.6210  -22.0513    0.0000 N   0  0
   26.1636  -22.5877    0.0000 C   0  0
   25.8547  -24.0563    0.0000 C   0  0
   26.9716  -25.0589    0.0000 N   0  0
   26.6627  -26.5276    0.0000 C   0  0
   25.2370  -26.9937    0.0000 O   0  0
   27.7796  -27.5301    0.0000 C   0  0
   29.2294  -27.1985    0.0000 C   0  0
   29.9840  -28.4948    0.0000 C   0  0
   31.4743  -28.6492    0.0000 N   0  0
   32.0877  -30.0190    0.0000 C   0  0
   31.2082  -31.2341    0.0000 O   0  0
   33.5805  -30.1736    0.0000 C   0  0
   34.5585  -29.0531    0.0000 C   0  0
   35.9310  -29.6584    0.0000 C   0  0
   37.2274  -28.9073    0.0000 N   0  0
   38.5287  -29.6550    0.0000 C   0  0
   38.5314  -31.1550    0.0000 O   0  0
   39.8274  -28.9027    0.0000 C   0  0
   39.9600  -27.4213    0.0000 C   0  0
   41.4261  -27.1043    0.0000 C   0  0
   42.0336  -25.7347    0.0000 N   0  0
   43.5259  -25.5748    0.0000 C   0  0
   44.4097  -26.7867    0.0000 O   0  0
   44.1343  -24.2028    0.0000 C   0  0
   43.3710  -22.9264    0.0000 N   0  0
   44.3708  -21.8082    0.0000 C   0  0
   45.7432  -22.4135    0.0000 C   0  0
   45.5916  -23.9058    0.0000 N   0  0
   46.7039  -24.9122    0.0000 C   0  0
   42.1807  -28.4007    0.0000 C   0  0
   41.1809  -29.5190    0.0000 N   0  0
   41.4893  -30.9869    0.0000 C   0  0
   35.7795  -31.1507    0.0000 C   0  0
   34.3134  -31.4678    0.0000 N   0  0
   33.7000  -32.8366    0.0000 C   0  0
   28.9843  -29.6131    0.0000 C   0  0
   27.6118  -29.0079    0.0000 N   0  0
   26.3110  -29.7548    0.0000 C   0  0
   25.9174  -17.0375    0.0000 C   0  0
   25.7605  -15.5457    0.0000 N   0  0
   26.8691  -14.5353    0.0000 C   0  0
   22.3336  -11.0630    0.0000 C   0  0
   21.3298   -9.9483    0.0000 N   0  0
   21.6329   -8.4792    0.0000 C   0  0
   15.9226   -8.3359    0.0000 C   0  0
   14.4553   -8.0240    0.0000 N   0  0
   13.8371   -6.6574    0.0000 C   0  0
    9.1329   -9.8977    0.0000 C   0  0
    7.7815  -10.5187    0.0000 C   0  0
    6.4833   -9.7656    0.0000 C   0  0
    5.1830  -10.5134    0.0000 O   0  0
    6.4855   -8.2648    0.0000 N   0  0
    5.1873   -7.5117    0.0000 C   0  0
    5.1894   -6.0109    0.0000 C   0  0
    3.8912   -5.2578    0.0000 C   0  0
    3.8933   -3.7570    0.0000 O   0  0
    2.5951   -3.0039    0.0000 N   0  0
    2.5973   -1.5031    0.0000 C   0  0
    3.8976   -0.7537    0.0000 C   0  0
    3.9019    0.7463    0.0000 C   0  0
    5.2031    1.4926    0.0000 C   0  0
    6.4999    0.7389    0.0000 C   0  0
    6.4957   -0.7611    0.0000 C   0  0
    7.7917   -1.5179    0.0000 C   0  0
    7.7853   -3.0179    0.0000 O   0  0
    9.0942   -0.7738    0.0000 O   0  0
    5.1945   -1.5074    0.0000 C   0  0
  1  2  1  0
  2  3  1  0
  3  4  2  0
  4  5  1  0
  5  6  1  0
  6  7  2  0
  6  8  1  0
  8  9  2  0
  9 10  1  0
 10 11  1  0
 11 12  1  0
 12 13  2  0
 12 14  1  0
 14 15  2  0
 15 16  1  0
 16 17  1  0
 17 18  1  0
 18 19  2  0
 18 20  1  0
 20 21  2  0
 21 22  1  0
 22 23  1  0
 23 24  1  0
 24 25  2  0
 24 26  1  0
 26 27  1  1
 26 28  1  0
 28 29  1  0
 29 30  1  0
 30 31  1  0
 31 32  2  0
 31 33  1  0
 33 34  2  0
 34 35  1  0
 35 36  1  0
 36 37  1  0
 37 38  2  0
 37 39  1  0
 39 40  2  0
 40 41  1  0
 41 42  1  0
 42 43  1  0
 43 44  2  0
 43 45  1  0
 45 46  2  0
 46 47  1  0
 47 48  1  0
 48 49  1  0
 49 50  2  0
 49 51  1  0
 51 52  2  0
 52 53  1  0
 53 54  2  0
 54 55  1  0
 55 51  1  0
 55 56  1  0
 47 57  2  0
 57 58  1  0
 58 45  1  0
 58 59  1  0
 41 60  2  0
 60 61  1  0
 61 39  1  0
 61 62  1  0
 35 63  2  0
 63 64  1  0
 64 33  1  0
 64 65  1  0
 22 66  2  0
 66 67  1  0
 67 20  1  0
 67 68  1  0
 16 69  2  0
 69 70  1  0
 70 14  1  0
 70 71  1  0
 10 72  2  0
 72 73  1  0
 73  8  1  0
 73 74  1  0
  4 75  1  0
 75 76  2  0
 76  2  1  0
 76 77  1  0
 77 78  2  0
 77 79  1  0
 79 80  1  0
 80 81  1  0
 81 82  1  0
 82 83  1  0
 83 84  1  0
 84 85  2  0
 85 86  1  0
 86 87  2  0
 87 88  1  0
 88 89  2  0
 89 90  1  0
 90 91  1  0
 91 92  2  0
 91 93  1  0
 90 94  2  0
 94 86  1  0
M  END
> <assay_chembl_id>
CHEMBL1046399

> <assay_description>
Inhibition of dihydrotestosterone-induced prostate specific antigen expression in human LNCAP cells by quantitative RT-PCR analysis

> <document_journal>
J Med Chem

> <molecule_chembl_id>
CHEMBL583533

> <standard_value>
300

> <IC50_uM>
0.3

> <Activity>
Yes

> <Canonical_Smiles>
Cn1cc(NC(=O)c2cc(NC(=O)c3cc(NC(=O)c4nc(NC(=O)[C@H](N)CCNC(=O)c5cc(NC(=O)c6cc(NC(=O)c7cc(NC(=O)c8nccn8C)cn7C)cn6C)cn5C)cn4C)cn3C)cn2C)cc1C(=O)NCCCO/N=C\c1cccc(C(=O)O)c1

$$$$

  SciTegic03142313312D

 92100  0  0  1  0            999 V2000
    6.7987  -12.9966    0.0000 C   0  0
    7.9194  -11.9995    0.0000 N   0  0
    9.3866  -12.3114    0.0000 C   0  0
   10.1366  -11.0124    0.0000 C   0  0
   11.6264  -10.8527    0.0000 N   0  0
   12.2348   -9.4807    0.0000 C   0  0
   11.3510   -8.2688    0.0000 O   0  0
   13.7271   -9.3208    0.0000 C   0  0
   14.7091  -10.4378    0.0000 C   0  0
   16.0794   -9.8276    0.0000 C   0  0
   17.3785  -10.5740    0.0000 N   0  0
   18.6771   -9.8217    0.0000 C   0  0
   18.6745   -8.3217    0.0000 O   0  0
   19.9785  -10.5694    0.0000 C   0  0
   20.1164  -12.0503    0.0000 C   0  0
   21.5836  -12.3621    0.0000 C   0  0
   22.1959  -13.7295    0.0000 N   0  0
   23.6888  -13.8841    0.0000 C   0  0
   24.5683  -12.6690    0.0000 O   0  0
   24.3021  -15.2539    0.0000 C   0  0
   23.5433  -16.5330    0.0000 N   0  0
   24.5471  -17.6477    0.0000 C   0  0
   24.2388  -19.1139    0.0000 N   0  0
   25.3556  -20.1164    0.0000 C   0  0
   26.7814  -19.6503    0.0000 O   0  0
   25.0468  -21.5851    0.0000 C   0  0  2  0  0  0
   23.6210  -22.0513    0.0000 N   0  0
   26.1636  -22.5877    0.0000 C   0  0
   25.8547  -24.0563    0.0000 C   0  0
   26.9716  -25.0589    0.0000 N   0  0
   26.6627  -26.5276    0.0000 C   0  0
   25.2370  -26.9937    0.0000 O   0  0
   27.7796  -27.5301    0.0000 C   0  0
   29.2294  -27.1985    0.0000 C   0  0
   29.9840  -28.4948    0.0000 C   0  0
   31.4743  -28.6492    0.0000 N   0  0
   32.0877  -30.0190    0.0000 C   0  0
   31.2082  -31.2341    0.0000 O   0  0
   33.5805  -30.1736    0.0000 C   0  0
   34.5585  -29.0531    0.0000 C   0  0
   35.9310  -29.6584    0.0000 C   0  0
   37.2274  -28.9073    0.0000 N   0  0
   38.5287  -29.6550    0.0000 C   0  0
   38.5314  -31.1550    0.0000 O   0  0
   39.8274  -28.9027    0.0000 C   0  0
   39.9600  -27.4213    0.0000 C   0  0
   41.4261  -27.1043    0.0000 C   0  0
   42.0336  -25.7347    0.0000 N   0  0
   43.5259  -25.5748    0.0000 C   0  0
   44.4097  -26.7867    0.0000 O   0  0
   44.1343  -24.2028    0.0000 C   0  0
   43.3710  -22.9264    0.0000 N   0  0
   44.3708  -21.8082    0.0000 C   0  0
   45.7432  -22.4135    0.0000 C   0  0
   45.5916  -23.9058    0.0000 N   0  0
   46.7039  -24.9122    0.0000 C   0  0
   42.1807  -28.4007    0.0000 C   0  0
   41.1809  -29.5190    0.0000 N   0  0
   41.4893  -30.9869    0.0000 C   0  0
   35.7795  -31.1507    0.0000 C   0  0
   34.3134  -31.4678    0.0000 N   0  0
   33.7000  -32.8366    0.0000 C   0  0
   28.9843  -29.6131    0.0000 C   0  0
   27.6118  -29.0079    0.0000 N   0  0
   26.3110  -29.7548    0.0000 C   0  0
   25.9174  -17.0375    0.0000 C   0  0
   25.7605  -15.5457    0.0000 N   0  0
   26.8691  -14.5353    0.0000 C   0  0
   22.3336  -11.0630    0.0000 C   0  0
   21.3298   -9.9483    0.0000 N   0  0
   21.6329   -8.4792    0.0000 C   0  0
   15.9226   -8.3359    0.0000 C   0  0
   14.4553   -8.0240    0.0000 N   0  0
   13.8371   -6.6574    0.0000 C   0  0
    9.1329   -9.8977    0.0000 C   0  0
    7.7815  -10.5187    0.0000 C   0  0
    6.4833   -9.7656    0.0000 C   0  0
    5.1830  -10.5134    0.0000 O   0  0
    6.4855   -8.2648    0.0000 N   0  0
    5.1873   -7.5117    0.0000 C   0  0
    5.1894   -6.0109    0.0000 C   0  0
    3.8912   -5.2578    0.0000 C   0  0
    3.8933   -3.7570    0.0000 O   0  0
    2.5951   -3.0039    0.0000 N   0  0
    2.5973   -1.5031    0.0000 C   0  0
    3.8976   -0.7537    0.0000 C   0  0
    3.9019    0.7463    0.0000 C   0  0
    5.2031    1.4926    0.0000 C   0  0
    6.4999    0.7389    0.0000 C   0  0
    7.8011    1.4852    0.0000 F   0  0
    6.4957   -0.7611    0.0000 C   0  0
    5.1945   -1.5074    0.0000 C   0  0
  1  2  1  0
  2  3  1  0
  3  4  2  0
  4  5  1  0
  5  6  1  0
  6  7  2  0
  6  8  1  0
  8  9  2  0
  9 10  1  0
 10 11  1  0
 11 12  1  0
 12 13  2  0
 12 14  1  0
 14 15  2  0
 15 16  1  0
 16 17  1  0
 17 18  1  0
 18 19  2  0
 18 20  1  0
 20 21  2  0
 21 22  1  0
 22 23  1  0
 23 24  1  0
 24 25  2  0
 24 26  1  0
 26 27  1  1
 26 28  1  0
 28 29  1  0
 29 30  1  0
 30 31  1  0
 31 32  2  0
 31 33  1  0
 33 34  2  0
 34 35  1  0
 35 36  1  0
 36 37  1  0
 37 38  2  0
 37 39  1  0
 39 40  2  0
 40 41  1  0
 41 42  1  0
 42 43  1  0
 43 44  2  0
 43 45  1  0
 45 46  2  0
 46 47  1  0
 47 48  1  0
 48 49  1  0
 49 50  2  0
 49 51  1  0
 51 52  2  0
 52 53  1  0
 53 54  2  0
 54 55  1  0
 55 51  1  0
 55 56  1  0
 47 57  2  0
 57 58  1  0
 58 45  1  0
 58 59  1  0
 41 60  2  0
 60 61  1  0
 61 39  1  0
 61 62  1  0
 35 63  2  0
 63 64  1  0
 64 33  1  0
 64 65  1  0
 22 66  2  0
 66 67  1  0
 67 20  1  0
 67 68  1  0
 16 69  2  0
 69 70  1  0
 70 14  1  0
 70 71  1  0
 10 72  2  0
 72 73  1  0
 73  8  1  0
 73 74  1  0
  4 75  1  0
 75 76  2  0
 76  2  1  0
 76 77  1  0
 77 78  2  0
 77 79  1  0
 79 80  1  0
 80 81  1  0
 81 82  1  0
 82 83  1  0
 83 84  1  0
 84 85  2  0
 85 86  1  0
 86 87  2  0
 87 88  1  0
 88 89  2  0
 89 90  1  0
 89 91  1  0
 91 92  2  0
 92 86  1  0
M  END
> <assay_chembl_id>
CHEMBL1046399

> <assay_description>
Inhibition of dihydrotestosterone-induced prostate specific antigen expression in human LNCAP cells by quantitative RT-PCR analysis

> <document_journal>
J Med Chem

> <molecule_chembl_id>
CHEMBL576889

> <standard_value>
600

> <IC50_uM>
0.6

> <Activity>
Yes

> <Canonical_Smiles>
Cn1cc(NC(=O)c2cc(NC(=O)c3cc(NC(=O)c4nc(NC(=O)[C@H](N)CCNC(=O)c5cc(NC(=O)c6cc(NC(=O)c7cc(NC(=O)c8nccn8C)cn7C)cn6C)cn5C)cn4C)cn3C)cn2C)cc1C(=O)NCCCO/N=C\c1ccc(F)cc1

$$$$

  SciTegic03142313312D

 92100  0  0  1  0            999 V2000
    6.7987  -12.9966    0.0000 C   0  0
    7.9194  -11.9995    0.0000 N   0  0
    9.3866  -12.3114    0.0000 C   0  0
   10.1366  -11.0124    0.0000 C   0  0
   11.6264  -10.8527    0.0000 N   0  0
   12.2348   -9.4807    0.0000 C   0  0
   11.3510   -8.2688    0.0000 O   0  0
   13.7271   -9.3208    0.0000 C   0  0
   14.7091  -10.4378    0.0000 C   0  0
   16.0794   -9.8276    0.0000 C   0  0
   17.3785  -10.5740    0.0000 N   0  0
   18.6771   -9.8217    0.0000 C   0  0
   18.6745   -8.3217    0.0000 O   0  0
   19.9785  -10.5694    0.0000 C   0  0
   20.1164  -12.0503    0.0000 C   0  0
   21.5836  -12.3621    0.0000 C   0  0
   22.1959  -13.7295    0.0000 N   0  0
   23.6888  -13.8841    0.0000 C   0  0
   24.5683  -12.6690    0.0000 O   0  0
   24.3021  -15.2539    0.0000 C   0  0
   23.5433  -16.5330    0.0000 N   0  0
   24.5471  -17.6477    0.0000 C   0  0
   24.2388  -19.1139    0.0000 N   0  0
   25.3556  -20.1164    0.0000 C   0  0
   26.7814  -19.6503    0.0000 O   0  0
   25.0468  -21.5851    0.0000 C   0  0  2  0  0  0
   23.6210  -22.0513    0.0000 N   0  0
   26.1636  -22.5877    0.0000 C   0  0
   25.8547  -24.0563    0.0000 C   0  0
   26.9716  -25.0589    0.0000 N   0  0
   26.6627  -26.5276    0.0000 C   0  0
   25.2370  -26.9937    0.0000 O   0  0
   27.7796  -27.5301    0.0000 C   0  0
   29.2294  -27.1985    0.0000 C   0  0
   29.9840  -28.4948    0.0000 C   0  0
   31.4743  -28.6492    0.0000 N   0  0
   32.0877  -30.0190    0.0000 C   0  0
   31.2082  -31.2341    0.0000 O   0  0
   33.5805  -30.1736    0.0000 C   0  0
   34.5585  -29.0531    0.0000 C   0  0
   35.9310  -29.6584    0.0000 C   0  0
   37.2274  -28.9073    0.0000 N   0  0
   38.5287  -29.6550    0.0000 C   0  0
   38.5314  -31.1550    0.0000 O   0  0
   39.8274  -28.9027    0.0000 C   0  0
   39.9600  -27.4213    0.0000 C   0  0
   41.4261  -27.1043    0.0000 C   0  0
   42.0336  -25.7347    0.0000 N   0  0
   43.5259  -25.5748    0.0000 C   0  0
   44.4097  -26.7867    0.0000 O   0  0
   44.1343  -24.2028    0.0000 C   0  0
   43.3710  -22.9264    0.0000 N   0  0
   44.3708  -21.8082    0.0000 C   0  0
   45.7432  -22.4135    0.0000 C   0  0
   45.5916  -23.9058    0.0000 N   0  0
   46.7039  -24.9122    0.0000 C   0  0
   42.1807  -28.4007    0.0000 C   0  0
   41.1809  -29.5190    0.0000 N   0  0
   41.4893  -30.9869    0.0000 C   0  0
   35.7795  -31.1507    0.0000 C   0  0
   34.3134  -31.4678    0.0000 N   0  0
   33.7000  -32.8366    0.0000 C   0  0
   28.9843  -29.6131    0.0000 C   0  0
   27.6118  -29.0079    0.0000 N   0  0
   26.3110  -29.7548    0.0000 C   0  0
   25.9174  -17.0375    0.0000 C   0  0
   25.7605  -15.5457    0.0000 N   0  0
   26.8691  -14.5353    0.0000 C   0  0
   22.3336  -11.0630    0.0000 C   0  0
   21.3298   -9.9483    0.0000 N   0  0
   21.6329   -8.4792    0.0000 C   0  0
   15.9226   -8.3359    0.0000 C   0  0
   14.4553   -8.0240    0.0000 N   0  0
   13.8371   -6.6574    0.0000 C   0  0
    9.1329   -9.8977    0.0000 C   0  0
    7.7815  -10.5187    0.0000 C   0  0
    6.4833   -9.7656    0.0000 C   0  0
    5.1830  -10.5134    0.0000 O   0  0
    6.4855   -8.2648    0.0000 N   0  0
    5.1873   -7.5117    0.0000 C   0  0
    5.1894   -6.0109    0.0000 C   0  0
    3.8912   -5.2578    0.0000 C   0  0
    3.8933   -3.7570    0.0000 O   0  0
    2.5951   -3.0039    0.0000 N   0  0
    2.5973   -1.5031    0.0000 C   0  0
    3.8976   -0.7537    0.0000 C   0  0
    3.9019    0.7463    0.0000 C   0  0
    5.2031    1.4926    0.0000 C   0  0
    6.4999    0.7389    0.0000 C   0  0
    6.4957   -0.7611    0.0000 C   0  0
    7.7926   -1.5148    0.0000 F   0  0
    5.1945   -1.5074    0.0000 C   0  0
  1  2  1  0
  2  3  1  0
  3  4  2  0
  4  5  1  0
  5  6  1  0
  6  7  2  0
  6  8  1  0
  8  9  2  0
  9 10  1  0
 10 11  1  0
 11 12  1  0
 12 13  2  0
 12 14  1  0
 14 15  2  0
 15 16  1  0
 16 17  1  0
 17 18  1  0
 18 19  2  0
 18 20  1  0
 20 21  2  0
 21 22  1  0
 22 23  1  0
 23 24  1  0
 24 25  2  0
 24 26  1  0
 26 27  1  1
 26 28  1  0
 28 29  1  0
 29 30  1  0
 30 31  1  0
 31 32  2  0
 31 33  1  0
 33 34  2  0
 34 35  1  0
 35 36  1  0
 36 37  1  0
 37 38  2  0
 37 39  1  0
 39 40  2  0
 40 41  1  0
 41 42  1  0
 42 43  1  0
 43 44  2  0
 43 45  1  0
 45 46  2  0
 46 47  1  0
 47 48  1  0
 48 49  1  0
 49 50  2  0
 49 51  1  0
 51 52  2  0
 52 53  1  0
 53 54  2  0
 54 55  1  0
 55 51  1  0
 55 56  1  0
 47 57  2  0
 57 58  1  0
 58 45  1  0
 58 59  1  0
 41 60  2  0
 60 61  1  0
 61 39  1  0
 61 62  1  0
 35 63  2  0
 63 64  1  0
 64 33  1  0
 64 65  1  0
 22 66  2  0
 66 67  1  0
 67 20  1  0
 67 68  1  0
 16 69  2  0
 69 70  1  0
 70 14  1  0
 70 71  1  0
 10 72  2  0
 72 73  1  0
 73  8  1  0
 73 74  1  0
  4 75  1  0
 75 76  2  0
 76  2  1  0
 76 77  1  0
 77 78  2  0
 77 79  1  0
 79 80  1  0
 80 81  1  0
 81 82  1  0
 82 83  1  0
 83 84  1  0
 84 85  2  0
 85 86  1  0
 86 87  2  0
 87 88  1  0
 88 89  2  0
 89 90  1  0
 90 91  1  0
 90 92  2  0
 92 86  1  0
M  END
> <assay_chembl_id>
CHEMBL1047212

> <assay_description>
Cytotoxicity against human LNCAP cells after 48 hrs by WST1 assay

> <document_journal>
J Med Chem

> <molecule_chembl_id>
CHEMBL576888

> <standard_value>
600

> <IC50_uM>
0.6

> <Activity>
Yes

> <Canonical_Smiles>
Cn1cc(NC(=O)c2cc(NC(=O)c3cc(NC(=O)c4nc(NC(=O)[C@H](N)CCNC(=O)c5cc(NC(=O)c6cc(NC(=O)c7cc(NC(=O)c8nccn8C)cn7C)cn6C)cn5C)cn4C)cn3C)cn2C)cc1C(=O)NCCCO/N=C\c1cccc(F)c1

$$$$

  SciTegic03142313312D

 16 16  0  0  0  0            999 V2000
    6.4848   -8.2644    0.0000 N   0  0
    5.1873   -7.5117    0.0000 C   0  0
    5.1894   -6.0109    0.0000 C   0  0
    3.8912   -5.2578    0.0000 C   0  0
    3.8933   -3.7570    0.0000 O   0  0
    2.5951   -3.0039    0.0000 N   0  0
    2.5973   -1.5031    0.0000 C   0  0
    3.8976   -0.7537    0.0000 C   0  0
    3.9019    0.7463    0.0000 C   0  0
    5.2031    1.4926    0.0000 C   0  0
    6.4999    0.7389    0.0000 C   0  0
    6.4957   -0.7611    0.0000 C   0  0
    7.7917   -1.5179    0.0000 C   0  0
    7.7853   -3.0179    0.0000 O   0  0
    9.0942   -0.7738    0.0000 O   0  0
    5.1945   -1.5074    0.0000 C   0  0
  1  2  1  0
  2  3  1  0
  3  4  1  0
  4  5  1  0
  5  6  1  0
  6  7  2  0
  7  8  1  0
  8  9  2  0
  9 10  1  0
 10 11  2  0
 11 12  1  0
 12 13  1  0
 13 14  2  0
 13 15  1  0
 12 16  2  0
 16  8  1  0
M  END
> <assay_chembl_id>
CHEMBL1047212

> <assay_description>
Cytotoxicity against human LNCAP cells after 48 hrs by WST1 assay

> <document_journal>
J Med Chem

> <molecule_chembl_id>
CHEMBL570373

> <standard_value>
20

> <IC50_uM>
0.02

> <Activity>
Yes

> <Canonical_Smiles>
NCCCO/N=C\c1cccc(C(=O)O)c1

$$$$

  SciTegic03142313312D

 17 17  0  0  0  0            999 V2000
    5.1830  -10.5134    0.0000 C   0  0
    6.4833   -9.7656    0.0000 C   0  0
    7.7808  -10.5183    0.0000 O   0  0
    6.4855   -8.2648    0.0000 N   0  0
    5.1873   -7.5117    0.0000 C   0  0
    5.1894   -6.0109    0.0000 C   0  0
    3.8912   -5.2578    0.0000 C   0  0
    3.8933   -3.7570    0.0000 O   0  0
    2.5951   -3.0039    0.0000 N   0  0
    2.5973   -1.5031    0.0000 C   0  0
    3.8976   -0.7537    0.0000 C   0  0
    3.9019    0.7463    0.0000 C   0  0
    5.2031    1.4926    0.0000 C   0  0
    6.4999    0.7389    0.0000 C   0  0
    7.8011    1.4852    0.0000 F   0  0
    6.4957   -0.7611    0.0000 C   0  0
    5.1945   -1.5074    0.0000 C   0  0
  1  2  1  0
  2  3  2  0
  2  4  1  0
  4  5  1  0
  5  6  1  0
  6  7  1  0
  7  8  1  0
  8  9  1  0
  9 10  2  0
 10 11  1  0
 11 12  2  0
 12 13  1  0
 13 14  2  0
 14 15  1  0
 14 16  1  0
 16 17  2  0
 17 11  1  0
M  END
> <assay_chembl_id>
CHEMBL1047212

> <assay_description>
Cytotoxicity against human LNCAP cells after 48 hrs by WST1 assay

> <document_journal>
J Med Chem

> <molecule_chembl_id>
CHEMBL567483

> <standard_value>
20

> <IC50_uM>
0.02

> <Activity>
Yes

> <Canonical_Smiles>
CC(=O)NCCCO/N=C\c1ccc(F)cc1

$$$$

  SciTegic03142313312D

 14 14  0  0  0  0            999 V2000
    6.4848   -8.2644    0.0000 N   0  0
    5.1873   -7.5117    0.0000 C   0  0
    5.1894   -6.0109    0.0000 C   0  0
    3.8912   -5.2578    0.0000 C   0  0
    3.8933   -3.7570    0.0000 O   0  0
    2.5951   -3.0039    0.0000 N   0  0
    2.5973   -1.5031    0.0000 C   0  0
    3.8976   -0.7537    0.0000 C   0  0
    3.9019    0.7463    0.0000 C   0  0
    5.2031    1.4926    0.0000 C   0  0
    6.4999    0.7389    0.0000 C   0  0
    7.8011    1.4852    0.0000 F   0  0
    6.4957   -0.7611    0.0000 C   0  0
    5.1945   -1.5074    0.0000 C   0  0
  1  2  1  0
  2  3  1  0
  3  4  1  0
  4  5  1  0
  5  6  1  0
  6  7  2  0
  7  8  1  0
  8  9  2  0
  9 10  1  0
 10 11  2  0
 11 12  1  0
 11 13  1  0
 13 14  2  0
 14  8  1  0
M  END
> <assay_chembl_id>
CHEMBL1047212

> <assay_description>
Cytotoxicity against human LNCAP cells after 48 hrs by WST1 assay

> <document_journal>
J Med Chem

> <molecule_chembl_id>
CHEMBL570372

> <standard_value>
20

> <IC50_uM>
0.02

> <Activity>
Yes

> <Canonical_Smiles>
NCCCO/N=C\c1ccc(F)cc1

$$$$

  SciTegic03142313312D

 19 19  0  0  0  0            999 V2000
    5.1830  -10.5134    0.0000 C   0  0
    6.4833   -9.7656    0.0000 C   0  0
    7.7808  -10.5183    0.0000 O   0  0
    6.4855   -8.2648    0.0000 N   0  0
    5.1873   -7.5117    0.0000 C   0  0
    5.1894   -6.0109    0.0000 C   0  0
    3.8912   -5.2578    0.0000 C   0  0
    3.8933   -3.7570    0.0000 O   0  0
    2.5951   -3.0039    0.0000 N   0  0
    2.5973   -1.5031    0.0000 C   0  0
    3.8976   -0.7537    0.0000 C   0  0
    3.9019    0.7463    0.0000 C   0  0
    5.2031    1.4926    0.0000 C   0  0
    6.4999    0.7389    0.0000 C   0  0
    6.4957   -0.7611    0.0000 C   0  0
    7.7917   -1.5179    0.0000 C   0  0
    7.7853   -3.0179    0.0000 O   0  0
    9.0942   -0.7738    0.0000 O   0  0
    5.1945   -1.5074    0.0000 C   0  0
  1  2  1  0
  2  3  2  0
  2  4  1  0
  4  5  1  0
  5  6  1  0
  6  7  1  0
  7  8  1  0
  8  9  1  0
  9 10  2  0
 10 11  1  0
 11 12  2  0
 12 13  1  0
 13 14  2  0
 14 15  1  0
 15 16  1  0
 16 17  2  0
 16 18  1  0
 15 19  2  0
 19 11  1  0
M  END
> <assay_chembl_id>
CHEMBL1047212

> <assay_description>
Cytotoxicity against human LNCAP cells after 48 hrs by WST1 assay

> <document_journal>
J Med Chem

> <molecule_chembl_id>
CHEMBL576642

> <standard_value>
20

> <IC50_uM>
0.02

> <Activity>
Yes

> <Canonical_Smiles>
CC(=O)NCCCO/N=C\c1cccc(C(=O)O)c1

$$$$

  SciTegic03142313312D

 22 25  0  0  0  0            999 V2000
    6.4924   -3.7566    0.0000 N   0  0
    5.1945   -3.0045    0.0000 C   0  0
    5.1969   -1.5045    0.0000 N   0  0
    3.8991   -0.7525    0.0000 C   0  0
    2.5987   -1.5004    0.0000 C   0  0
    1.2990   -0.7500    0.0000 C   0  0
    1.2990    0.7500    0.0000 N   0  0
    0.0000    1.5000    0.0000 C   0  0
    0.0000    3.0008    0.0000 N   0  0
    1.2978    3.7529    0.0000 C   0  0
    1.2954    5.2529    0.0000 C   0  0
   -0.0048    6.0009    0.0000 O   0  0
   -1.3026    5.2488    0.0000 C   0  0
   -1.3002    3.7488    0.0000 C   0  0
   -1.2990    0.7500    0.0000 C   0  0
   -2.7248    1.2135    0.0000 S   0  0
   -3.6065    0.0000    0.0000 C   0  0
   -2.7248   -1.2135    0.0000 C   0  0
   -1.2990   -0.7500    0.0000 C   0  0
    0.0000   -1.5000    0.0000 N   0  0
    2.5965   -3.0004    0.0000 C   0  0
    3.8943   -3.7525    0.0000 N   0  0
  1  2  1  0
  2  3  2  0
  3  4  1  0
  4  5  2  0
  5  6  1  0
  6  7  2  0
  7  8  1  0
  8  9  1  0
  9 10  1  0
 10 11  1  0
 11 12  1  0
 12 13  1  0
 13 14  1  0
 14  9  1  0
  8 15  2  0
 15 16  1  0
 16 17  1  0
 17 18  2  0
 18 19  1  0
 19 15  1  0
 19 20  2  0
 20  6  1  0
  5 21  1  0
 21 22  2  0
 22  2  1  0
M  END
> <assay_chembl_id>
CHEMBL1067296

> <assay_description>
Cytotoxicity against human LNCAP cells

> <document_journal>
Bioorg Med Chem Lett

> <molecule_chembl_id>
CHEMBL594844

> <standard_value>
680

> <IC50_uM>
0.68

> <Activity>
Yes

> <Canonical_Smiles>
Nc1ncc(-c2nc(N3CCOCC3)c3sccc3n2)cn1

$$$$

  SciTegic03142313312D

 28 32  0  0  0  0            999 V2000
    7.7795   -7.5156    0.0000 C   0  0
    7.7840   -6.0157    0.0000 N   0  0
    6.4870   -5.2605    0.0000 C   0  0
    5.1855   -6.0062    0.0000 O   0  0
    6.4915   -3.7597    0.0000 N   0  0
    5.1945   -3.0045    0.0000 C   0  0
    5.1969   -1.5045    0.0000 C   0  0
    3.8991   -0.7525    0.0000 C   0  0
    2.5987   -1.5004    0.0000 C   0  0
    1.2990   -0.7500    0.0000 C   0  0
    1.2990    0.7500    0.0000 N   0  0
    0.0000    1.5000    0.0000 C   0  0
    0.0000    3.0008    0.0000 N   0  0
    0.3976    4.0929    0.0000 C   0  0
    1.9160    5.0370    0.0000 C   0  0  3  0  0  0
    3.4405    4.4165    0.0000 C   0  0
    2.0983    4.3984    0.0000 C   0  0
    0.8565    5.1517    0.0000 C   0  0  3  0  0  0
   -0.5573    4.3156    0.0000 C   0  0
    1.3526    6.4269    0.0000 O   0  0
   -1.2990    0.7500    0.0000 C   0  0
   -2.7248    1.2135    0.0000 S   0  0
   -3.6065    0.0000    0.0000 C   0  0
   -2.7248   -1.2135    0.0000 C   0  0
   -1.2990   -0.7500    0.0000 C   0  0
    0.0000   -1.5000    0.0000 N   0  0
    2.5965   -3.0004    0.0000 C   0  0
    3.8943   -3.7525    0.0000 C   0  0
  1  2  1  0
  2  3  1  0
  3  4  2  0
  3  5  1  0
  5  6  1  0
  6  7  2  0
  7  8  1  0
  8  9  2  0
  9 10  1  0
 10 11  2  0
 11 12  1  0
 12 13  1  0
 13 14  1  0
 15 14  1  4
 15 16  1  0
 16 17  1  0
 18 17  1  4
 18 19  1  0
 19 13  1  0
 18 20  1  0
 20 15  1  0
 12 21  2  0
 21 22  1  0
 22 23  1  0
 23 24  2  0
 24 25  1  0
 25 21  1  0
 25 26  2  0
 26 10  1  0
  9 27  1  0
 27 28  2  0
 28  6  1  0
M  END
> <assay_chembl_id>
CHEMBL1067296

> <assay_description>
Cytotoxicity against human LNCAP cells

> <document_journal>
Bioorg Med Chem Lett

> <molecule_chembl_id>
CHEMBL606131

> <standard_value>
85

> <IC50_uM>
0.085

> <Activity>
Yes

> <Canonical_Smiles>
CNC(=O)Nc1ccc(-c2nc(N3CC4CCC(C3)O4)c3sccc3n2)cc1

$$$$

  SciTegic03142313312D

 29 33  0  0  0  0            999 V2000
    9.0758   -8.2712    0.0000 C   0  0
    7.7795   -7.5165    0.0000 C   0  0
    7.7840   -6.0157    0.0000 N   0  0
    6.4870   -5.2605    0.0000 C   0  0
    5.1855   -6.0062    0.0000 O   0  0
    6.4915   -3.7597    0.0000 N   0  0
    5.1945   -3.0045    0.0000 C   0  0
    5.1969   -1.5045    0.0000 C   0  0
    3.8991   -0.7525    0.0000 C   0  0
    2.5987   -1.5004    0.0000 C   0  0
    1.2990   -0.7500    0.0000 C   0  0
    1.2990    0.7500    0.0000 N   0  0
    0.0000    1.5000    0.0000 C   0  0
    0.0000    3.0008    0.0000 N   0  0
    0.3976    4.0929    0.0000 C   0  0
    1.9160    5.0370    0.0000 C   0  0  3  0  0  0
    3.4405    4.4165    0.0000 C   0  0
    2.0983    4.3984    0.0000 C   0  0
    0.8565    5.1517    0.0000 C   0  0  3  0  0  0
   -0.5573    4.3156    0.0000 C   0  0
    1.3526    6.4269    0.0000 O   0  0
   -1.2990    0.7500    0.0000 C   0  0
   -2.7248    1.2135    0.0000 S   0  0
   -3.6065    0.0000    0.0000 C   0  0
   -2.7248   -1.2135    0.0000 C   0  0
   -1.2990   -0.7500    0.0000 C   0  0
    0.0000   -1.5000    0.0000 N   0  0
    2.5965   -3.0004    0.0000 C   0  0
    3.8943   -3.7525    0.0000 C   0  0
  1  2  1  0
  2  3  1  0
  3  4  1  0
  4  5  2  0
  4  6  1  0
  6  7  1  0
  7  8  2  0
  8  9  1  0
  9 10  2  0
 10 11  1  0
 11 12  2  0
 12 13  1  0
 13 14  1  0
 14 15  1  0
 16 15  1  4
 16 17  1  0
 17 18  1  0
 19 18  1  4
 19 20  1  0
 20 14  1  0
 19 21  1  0
 21 16  1  0
 13 22  2  0
 22 23  1  0
 23 24  1  0
 24 25  2  0
 25 26  1  0
 26 22  1  0
 26 27  2  0
 27 11  1  0
 10 28  1  0
 28 29  2  0
 29  7  1  0
M  END
> <assay_chembl_id>
CHEMBL1067296

> <assay_description>
Cytotoxicity against human LNCAP cells

> <document_journal>
Bioorg Med Chem Lett

> <molecule_chembl_id>
CHEMBL595053

> <standard_value>
12

> <IC50_uM>
0.012

> <Activity>
Yes

> <Canonical_Smiles>
CCNC(=O)Nc1ccc(-c2nc(N3CC4CCC(C3)O4)c3sccc3n2)cc1

$$$$

  SciTegic03142313312D

 30 34  0  0  0  0            999 V2000
    5.1855   -6.0062    0.0000 O   0  0
    6.4870   -5.2605    0.0000 C   0  0
    7.7840   -6.0157    0.0000 N   0  0
    7.7795   -7.5165    0.0000 C   0  0
    9.0765   -8.2716    0.0000 C   0  0
    9.0720   -9.7716    0.0000 F   0  0
    6.4915   -3.7597    0.0000 N   0  0
    5.1945   -3.0045    0.0000 C   0  0
    5.1969   -1.5045    0.0000 C   0  0
    3.8991   -0.7525    0.0000 C   0  0
    2.5987   -1.5004    0.0000 C   0  0
    1.2990   -0.7500    0.0000 C   0  0
    1.2990    0.7500    0.0000 N   0  0
    0.0000    1.5000    0.0000 C   0  0
    0.0000    3.0008    0.0000 N   0  0
    0.3976    4.0929    0.0000 C   0  0
    1.9160    5.0370    0.0000 C   0  0  3  0  0  0
    3.4405    4.4165    0.0000 C   0  0
    2.0983    4.3984    0.0000 C   0  0
    0.8565    5.1517    0.0000 C   0  0  3  0  0  0
   -0.5573    4.3156    0.0000 C   0  0
    1.3526    6.4269    0.0000 O   0  0
   -1.2990    0.7500    0.0000 C   0  0
   -2.7248    1.2135    0.0000 S   0  0
   -3.6065    0.0000    0.0000 C   0  0
   -2.7248   -1.2135    0.0000 C   0  0
   -1.2990   -0.7500    0.0000 C   0  0
    0.0000   -1.5000    0.0000 N   0  0
    2.5965   -3.0004    0.0000 C   0  0
    3.8943   -3.7525    0.0000 C   0  0
  1  2  2  0
  2  3  1  0
  3  4  1  0
  4  5  1  0
  5  6  1  0
  2  7  1  0
  7  8  1  0
  8  9  2  0
  9 10  1  0
 10 11  2  0
 11 12  1  0
 12 13  2  0
 13 14  1  0
 14 15  1  0
 15 16  1  0
 17 16  1  4
 17 18  1  0
 18 19  1  0
 20 19  1  4
 20 21  1  0
 21 15  1  0
 20 22  1  0
 22 17  1  0
 14 23  2  0
 23 24  1  0
 24 25  1  0
 25 26  2  0
 26 27  1  0
 27 23  1  0
 27 28  2  0
 28 12  1  0
 11 29  1  0
 29 30  2  0
 30  8  1  0
M  END
> <assay_chembl_id>
CHEMBL1067296

> <assay_description>
Cytotoxicity against human LNCAP cells

> <document_journal>
Bioorg Med Chem Lett

> <molecule_chembl_id>
CHEMBL595287

> <standard_value>
87

> <IC50_uM>
0.087

> <Activity>
Yes

> <Canonical_Smiles>
O=C(NCCF)Nc1ccc(-c2nc(N3CC4CCC(C3)O4)c3sccc3n2)cc1

$$$$

  SciTegic03142313312D

 30 34  0  0  0  0            999 V2000
    5.1855   -6.0062    0.0000 O   0  0
    6.4870   -5.2605    0.0000 C   0  0
    7.7840   -6.0157    0.0000 N   0  0
    7.7795   -7.5165    0.0000 C   0  0
    9.0765   -8.2716    0.0000 C   0  0
    9.0720   -9.7716    0.0000 O   0  0
    6.4915   -3.7597    0.0000 N   0  0
    5.1945   -3.0045    0.0000 C   0  0
    5.1969   -1.5045    0.0000 C   0  0
    3.8991   -0.7525    0.0000 C   0  0
    2.5987   -1.5004    0.0000 C   0  0
    1.2990   -0.7500    0.0000 C   0  0
    1.2990    0.7500    0.0000 N   0  0
    0.0000    1.5000    0.0000 C   0  0
    0.0000    3.0008    0.0000 N   0  0
    0.3976    4.0929    0.0000 C   0  0
    1.9160    5.0370    0.0000 C   0  0  3  0  0  0
    3.4405    4.4165    0.0000 C   0  0
    2.0983    4.3984    0.0000 C   0  0
    0.8565    5.1517    0.0000 C   0  0  3  0  0  0
   -0.5573    4.3156    0.0000 C   0  0
    1.3526    6.4269    0.0000 O   0  0
   -1.2990    0.7500    0.0000 C   0  0
   -2.7248    1.2135    0.0000 S   0  0
   -3.6065    0.0000    0.0000 C   0  0
   -2.7248   -1.2135    0.0000 C   0  0
   -1.2990   -0.7500    0.0000 C   0  0
    0.0000   -1.5000    0.0000 N   0  0
    2.5965   -3.0004    0.0000 C   0  0
    3.8943   -3.7525    0.0000 C   0  0
  1  2  2  0
  2  3  1  0
  3  4  1  0
  4  5  1  0
  5  6  1  0
  2  7  1  0
  7  8  1  0
  8  9  2  0
  9 10  1  0
 10 11  2  0
 11 12  1  0
 12 13  2  0
 13 14  1  0
 14 15  1  0
 15 16  1  0
 17 16  1  4
 17 18  1  0
 18 19  1  0
 20 19  1  4
 20 21  1  0
 21 15  1  0
 20 22  1  0
 22 17  1  0
 14 23  2  0
 23 24  1  0
 24 25  1  0
 25 26  2  0
 26 27  1  0
 27 23  1  0
 27 28  2  0
 28 12  1  0
 11 29  1  0
 29 30  2  0
 30  8  1  0
M  END
> <assay_chembl_id>
CHEMBL1067296

> <assay_description>
Cytotoxicity against human LNCAP cells

> <document_journal>
Bioorg Med Chem Lett

> <molecule_chembl_id>
CHEMBL593157

> <standard_value>
180

> <IC50_uM>
0.18

> <Activity>
Yes

> <Canonical_Smiles>
O=C(NCCO)Nc1ccc(-c2nc(N3CC4CCC(C3)O4)c3sccc3n2)cc1

$$$$

  SciTegic03142313312D

 30 35  0  0  0  0            999 V2000
    5.1855   -6.0062    0.0000 O   0  0
    6.4870   -5.2605    0.0000 C   0  0
    6.4915   -3.7597    0.0000 N   0  0
    5.1945   -3.0045    0.0000 C   0  0
    5.1969   -1.5045    0.0000 C   0  0
    3.8991   -0.7525    0.0000 C   0  0
    2.5987   -1.5004    0.0000 C   0  0
    1.2990   -0.7500    0.0000 C   0  0
    1.2990    0.7500    0.0000 N   0  0
    0.0000    1.5000    0.0000 C   0  0
    0.0000    3.0008    0.0000 N   0  0
    0.3976    4.0929    0.0000 C   0  0
    1.9160    5.0370    0.0000 C   0  0  3  0  0  0
    3.4405    4.4165    0.0000 C   0  0
    2.0983    4.3984    0.0000 C   0  0
    0.8565    5.1517    0.0000 C   0  0  3  0  0  0
   -0.5573    4.3156    0.0000 C   0  0
    1.3526    6.4269    0.0000 O   0  0
   -1.2990    0.7500    0.0000 C   0  0
   -2.7248    1.2135    0.0000 S   0  0
   -3.6065    0.0000    0.0000 C   0  0
   -2.7248   -1.2135    0.0000 C   0  0
   -1.2990   -0.7500    0.0000 C   0  0
    0.0000   -1.5000    0.0000 N   0  0
    2.5965   -3.0004    0.0000 C   0  0
    3.8943   -3.7525    0.0000 C   0  0
    7.7840   -6.0157    0.0000 N   0  0
    7.7795   -7.5165    0.0000 C   0  0
    8.5233   -8.7279    0.0000 C   0  0
    7.0233   -8.7202    0.0000 C   0  0
  1  2  2  0
  2  3  1  0
  3  4  1  0
  4  5  2  0
  5  6  1  0
  6  7  2  0
  7  8  1  0
  8  9  2  0
  9 10  1  0
 10 11  1  0
 11 12  1  0
 13 12  1  4
 13 14  1  0
 14 15  1  0
 16 15  1  4
 16 17  1  0
 17 11  1  0
 16 18  1  0
 18 13  1  0
 10 19  2  0
 19 20  1  0
 20 21  1  0
 21 22  2  0
 22 23  1  0
 23 19  1  0
 23 24  2  0
 24  8  1  0
  7 25  1  0
 25 26  2  0
 26  4  1  0
  2 27  1  0
 27 28  1  0
 28 29  1  0
 29 30  1  0
 30 28  1  0
M  END
> <assay_chembl_id>
CHEMBL1067296

> <assay_description>
Cytotoxicity against human LNCAP cells

> <document_journal>
Bioorg Med Chem Lett

> <molecule_chembl_id>
CHEMBL594793

> <standard_value>
40

> <IC50_uM>
0.04

> <Activity>
Yes

> <Canonical_Smiles>
O=C(Nc1ccc(-c2nc(N3CC4CCC(C3)O4)c3sccc3n2)cc1)NC1CC1

$$$$

  SciTegic03142313312D

 33 38  0  0  0  0            999 V2000
    5.1855   -6.0062    0.0000 O   0  0
    6.4870   -5.2605    0.0000 C   0  0
    7.7840   -6.0157    0.0000 N   0  0
    7.7795   -7.5165    0.0000 C   0  0
    9.0747   -8.2731    0.0000 C   0  0
    9.0672   -9.7731    0.0000 C   0  0
    7.7644  -10.5165    0.0000 C   0  0
    6.4691   -9.7600    0.0000 C   0  0
    6.4767   -8.2600    0.0000 C   0  0
    6.4915   -3.7597    0.0000 N   0  0
    5.1945   -3.0045    0.0000 C   0  0
    5.1969   -1.5045    0.0000 C   0  0
    3.8991   -0.7525    0.0000 C   0  0
    2.5987   -1.5004    0.0000 C   0  0
    1.2990   -0.7500    0.0000 C   0  0
    1.2990    0.7500    0.0000 N   0  0
    0.0000    1.5000    0.0000 C   0  0
    0.0000    3.0008    0.0000 N   0  0
    0.3976    4.0929    0.0000 C   0  0
    1.9160    5.0370    0.0000 C   0  0  3  0  0  0
    3.4405    4.4165    0.0000 C   0  0
    2.0983    4.3984    0.0000 C   0  0
    0.8565    5.1517    0.0000 C   0  0  3  0  0  0
   -0.5573    4.3156    0.0000 C   0  0
    1.3526    6.4269    0.0000 O   0  0
   -1.2990    0.7500    0.0000 C   0  0
   -2.7248    1.2135    0.0000 S   0  0
   -3.6065    0.0000    0.0000 C   0  0
   -2.7248   -1.2135    0.0000 C   0  0
   -1.2990   -0.7500    0.0000 C   0  0
    0.0000   -1.5000    0.0000 N   0  0
    2.5965   -3.0004    0.0000 C   0  0
    3.8943   -3.7525    0.0000 C   0  0
  1  2  2  0
  2  3  1  0
  3  4  1  0
  4  5  2  0
  5  6  1  0
  6  7  2  0
  7  8  1  0
  8  9  2  0
  9  4  1  0
  2 10  1  0
 10 11  1  0
 11 12  2  0
 12 13  1  0
 13 14  2  0
 14 15  1  0
 15 16  2  0
 16 17  1  0
 17 18  1  0
 18 19  1  0
 20 19  1  4
 20 21  1  0
 21 22  1  0
 23 22  1  4
 23 24  1  0
 24 18  1  0
 23 25  1  0
 25 20  1  0
 17 26  2  0
 26 27  1  0
 27 28  1  0
 28 29  2  0
 29 30  1  0
 30 26  1  0
 30 31  2  0
 31 15  1  0
 14 32  1  0
 32 33  2  0
 33 11  1  0
M  END
> <assay_chembl_id>
CHEMBL1067296

> <assay_description>
Cytotoxicity against human LNCAP cells

> <document_journal>
Bioorg Med Chem Lett

> <molecule_chembl_id>
CHEMBL594571

> <standard_value>
140

> <IC50_uM>
0.14

> <Activity>
Yes

> <Canonical_Smiles>
O=C(Nc1ccccc1)Nc1ccc(-c2nc(N3CC4CCC(C3)O4)c3sccc3n2)cc1

$$$$

  SciTegic03142313312D

 33 38  0  0  0  0            999 V2000
    5.1855   -6.0062    0.0000 O   0  0
    6.4870   -5.2605    0.0000 C   0  0
    6.4915   -3.7597    0.0000 N   0  0
    5.1945   -3.0045    0.0000 C   0  0
    5.1969   -1.5045    0.0000 C   0  0
    3.8991   -0.7525    0.0000 C   0  0
    2.5987   -1.5004    0.0000 C   0  0
    1.2990   -0.7500    0.0000 C   0  0
    1.2990    0.7500    0.0000 N   0  0
    0.0000    1.5000    0.0000 C   0  0
    0.0000    3.0008    0.0000 N   0  0
    0.3976    4.0929    0.0000 C   0  0
    1.9160    5.0370    0.0000 C   0  0  3  0  0  0
    3.4405    4.4165    0.0000 C   0  0
    2.0983    4.3984    0.0000 C   0  0
    0.8565    5.1517    0.0000 C   0  0  3  0  0  0
   -0.5573    4.3156    0.0000 C   0  0
    1.3526    6.4269    0.0000 O   0  0
   -1.2990    0.7500    0.0000 C   0  0
   -2.7248    1.2135    0.0000 S   0  0
   -3.6065    0.0000    0.0000 C   0  0
   -2.7248   -1.2135    0.0000 C   0  0
   -1.2990   -0.7500    0.0000 C   0  0
    0.0000   -1.5000    0.0000 N   0  0
    2.5965   -3.0004    0.0000 C   0  0
    3.8943   -3.7525    0.0000 C   0  0
    7.7840   -6.0157    0.0000 N   0  0
    7.7795   -7.5165    0.0000 C   0  0
    9.0747   -8.2731    0.0000 C   0  0
    9.0672   -9.7731    0.0000 C   0  0
    7.7644  -10.5165    0.0000 C   0  0
    6.4691   -9.7600    0.0000 N   0  0
    6.4767   -8.2600    0.0000 C   0  0
  1  2  2  0
  2  3  1  0
  3  4  1  0
  4  5  2  0
  5  6  1  0
  6  7  2  0
  7  8  1  0
  8  9  2  0
  9 10  1  0
 10 11  1  0
 11 12  1  0
 13 12  1  4
 13 14  1  0
 14 15  1  0
 16 15  1  4
 16 17  1  0
 17 11  1  0
 16 18  1  0
 18 13  1  0
 10 19  2  0
 19 20  1  0
 20 21  1  0
 21 22  2  0
 22 23  1  0
 23 19  1  0
 23 24  2  0
 24  8  1  0
  7 25  1  0
 25 26  2  0
 26  4  1  0
  2 27  1  0
 27 28  1  0
 28 29  2  0
 29 30  1  0
 30 31  2  0
 31 32  1  0
 32 33  2  0
 33 28  1  0
M  END
> <assay_chembl_id>
CHEMBL1067296

> <assay_description>
Cytotoxicity against human LNCAP cells

> <document_journal>
Bioorg Med Chem Lett

> <molecule_chembl_id>
CHEMBL595256

> <standard_value>
27

> <IC50_uM>
0.027

> <Activity>
Yes

> <Canonical_Smiles>
O=C(Nc1ccc(-c2nc(N3CC4CCC(C3)O4)c3sccc3n2)cc1)Nc1cccnc1

$$$$

  SciTegic03142313312D

 33 38  0  0  0  0            999 V2000
    5.1855   -6.0062    0.0000 O   0  0
    6.4870   -5.2605    0.0000 C   0  0
    7.7840   -6.0157    0.0000 N   0  0
    7.7795   -7.5165    0.0000 C   0  0
    9.0747   -8.2731    0.0000 C   0  0
    9.0672   -9.7731    0.0000 C   0  0
    7.7644  -10.5165    0.0000 N   0  0
    6.4691   -9.7600    0.0000 C   0  0
    6.4767   -8.2600    0.0000 C   0  0
    6.4915   -3.7597    0.0000 N   0  0
    5.1945   -3.0045    0.0000 C   0  0
    5.1969   -1.5045    0.0000 C   0  0
    3.8991   -0.7525    0.0000 C   0  0
    2.5987   -1.5004    0.0000 C   0  0
    1.2990   -0.7500    0.0000 C   0  0
    1.2990    0.7500    0.0000 N   0  0
    0.0000    1.5000    0.0000 C   0  0
    0.0000    3.0008    0.0000 N   0  0
    0.3976    4.0929    0.0000 C   0  0
    1.9160    5.0370    0.0000 C   0  0  3  0  0  0
    3.4405    4.4165    0.0000 C   0  0
    2.0983    4.3984    0.0000 C   0  0
    0.8565    5.1517    0.0000 C   0  0  3  0  0  0
   -0.5573    4.3156    0.0000 C   0  0
    1.3526    6.4269    0.0000 O   0  0
   -1.2990    0.7500    0.0000 C   0  0
   -2.7248    1.2135    0.0000 S   0  0
   -3.6065    0.0000    0.0000 C   0  0
   -2.7248   -1.2135    0.0000 C   0  0
   -1.2990   -0.7500    0.0000 C   0  0
    0.0000   -1.5000    0.0000 N   0  0
    2.5965   -3.0004    0.0000 C   0  0
    3.8943   -3.7525    0.0000 C   0  0
  1  2  2  0
  2  3  1  0
  3  4  1  0
  4  5  2  0
  5  6  1  0
  6  7  2  0
  7  8  1  0
  8  9  2  0
  9  4  1  0
  2 10  1  0
 10 11  1  0
 11 12  2  0
 12 13  1  0
 13 14  2  0
 14 15  1  0
 15 16  2  0
 16 17  1  0
 17 18  1  0
 18 19  1  0
 20 19  1  4
 20 21  1  0
 21 22  1  0
 23 22  1  4
 23 24  1  0
 24 18  1  0
 23 25  1  0
 25 20  1  0
 17 26  2  0
 26 27  1  0
 27 28  1  0
 28 29  2  0
 29 30  1  0
 30 26  1  0
 30 31  2  0
 31 15  1  0
 14 32  1  0
 32 33  2  0
 33 11  1  0
M  END
> <assay_chembl_id>
CHEMBL1067296

> <assay_description>
Cytotoxicity against human LNCAP cells

> <document_journal>
Bioorg Med Chem Lett

> <molecule_chembl_id>
CHEMBL592917

> <standard_value>
10

> <IC50_uM>
0.01

> <Activity>
Yes

> <Canonical_Smiles>
O=C(Nc1ccncc1)Nc1ccc(-c2nc(N3CC4CCC(C3)O4)c3sccc3n2)cc1

$$$$

  SciTegic03142313312D

 36 41  0  0  0  0            999 V2000
    7.7795   -7.5156    0.0000 C   0  0
    7.7840   -6.0157    0.0000 N   0  0
    6.4870   -5.2605    0.0000 C   0  0
    5.1855   -6.0062    0.0000 O   0  0
    6.4915   -3.7597    0.0000 N   0  0
    5.1945   -3.0045    0.0000 C   0  0
    5.1969   -1.5045    0.0000 C   0  0
    3.8991   -0.7525    0.0000 C   0  0
    2.5987   -1.5004    0.0000 C   0  0
    1.2990   -0.7500    0.0000 C   0  0
    1.2990    0.7500    0.0000 N   0  0
    0.0000    1.5000    0.0000 C   0  0
    0.0000    3.0008    0.0000 N   0  0
    0.3976    4.0929    0.0000 C   0  0
    1.9160    5.0370    0.0000 C   0  0  3  0  0  0
    3.4405    4.4165    0.0000 C   0  0
    2.0983    4.3984    0.0000 C   0  0
    0.8565    5.1517    0.0000 C   0  0  3  0  0  0
   -0.5573    4.3156    0.0000 C   0  0
    1.3526    6.4269    0.0000 O   0  0
   -1.2990    0.7500    0.0000 C   0  0
   -2.7248    1.2135    0.0000 S   0  0
   -3.6065    0.0000    0.0000 C   0  0
   -5.1047   -0.0031    0.0000 C   0  0
   -5.8532   -1.3040    0.0000 N   0  0
   -7.3533   -1.3093    0.0000 C   0  0
   -8.0987   -2.6109    0.0000 C   0  0
   -7.3442   -3.9074    0.0000 N   0  0
   -8.0897   -5.2090    0.0000 C   0  0
   -5.8442   -3.9021    0.0000 C   0  0
   -5.0987   -2.6005    0.0000 C   0  0
   -2.7248   -1.2135    0.0000 C   0  0
   -1.2990   -0.7500    0.0000 C   0  0
    0.0000   -1.5000    0.0000 N   0  0
    2.5965   -3.0004    0.0000 C   0  0
    3.8943   -3.7525    0.0000 C   0  0
  1  2  1  0
  2  3  1  0
  3  4  2  0
  3  5  1  0
  5  6  1  0
  6  7  2  0
  7  8  1  0
  8  9  2  0
  9 10  1  0
 10 11  2  0
 11 12  1  0
 12 13  1  0
 13 14  1  0
 15 14  1  4
 15 16  1  0
 16 17  1  0
 18 17  1  4
 18 19  1  0
 19 13  1  0
 18 20  1  0
 20 15  1  0
 12 21  2  0
 21 22  1  0
 22 23  1  0
 23 24  1  0
 24 25  1  0
 25 26  1  0
 26 27  1  0
 27 28  1  0
 28 29  1  0
 28 30  1  0
 30 31  1  0
 31 25  1  0
 23 32  2  0
 32 33  1  0
 33 21  1  0
 33 34  2  0
 34 10  1  0
  9 35  1  0
 35 36  2  0
 36  6  1  0
M  END
> <assay_chembl_id>
CHEMBL1067296

> <assay_description>
Cytotoxicity against human LNCAP cells

> <document_journal>
Bioorg Med Chem Lett

> <molecule_chembl_id>
CHEMBL605529

> <standard_value>
500

> <IC50_uM>
0.5

> <Activity>
Yes

> <Canonical_Smiles>
CNC(=O)Nc1ccc(-c2nc(N3CC4CCC(C3)O4)c3sc(CN4CCN(C)CC4)cc3n2)cc1

$$$$

  SciTegic03142313312D

 39 44  0  0  0  0            999 V2000
    7.7795   -7.5156    0.0000 C   0  0
    7.7840   -6.0157    0.0000 N   0  0
    6.4870   -5.2605    0.0000 C   0  0
    5.1855   -6.0062    0.0000 O   0  0
    6.4915   -3.7597    0.0000 N   0  0
    5.1945   -3.0045    0.0000 C   0  0
    5.1969   -1.5045    0.0000 C   0  0
    3.8991   -0.7525    0.0000 C   0  0
    2.5987   -1.5004    0.0000 C   0  0
    1.2990   -0.7500    0.0000 C   0  0
    1.2990    0.7500    0.0000 N   0  0
    0.0000    1.5000    0.0000 C   0  0
    0.0000    3.0008    0.0000 N   0  0
    0.3976    4.0929    0.0000 C   0  0
    1.9160    5.0370    0.0000 C   0  0  3  0  0  0
    3.4405    4.4165    0.0000 C   0  0
    2.0983    4.3984    0.0000 C   0  0
    0.8565    5.1517    0.0000 C   0  0  3  0  0  0
   -0.5573    4.3156    0.0000 C   0  0
    1.3526    6.4269    0.0000 O   0  0
   -1.2990    0.7500    0.0000 C   0  0
   -2.7248    1.2135    0.0000 S   0  0
   -3.6065    0.0000    0.0000 C   0  0
   -5.1047   -0.0031    0.0000 C   0  0
   -5.8532   -1.3040    0.0000 N   0  0
   -7.3533   -1.3093    0.0000 C   0  0
   -8.0987   -2.6109    0.0000 C   0  0
   -7.3442   -3.9074    0.0000 N   0  0
   -8.0901   -5.2097    0.0000 S   0  0
   -7.3352   -6.5059    0.0000 C   0  0
   -9.5901   -5.2159    0.0000 O   0  0
   -8.8349   -6.5117    0.0000 O   0  0
   -5.8442   -3.9021    0.0000 C   0  0
   -5.0987   -2.6005    0.0000 C   0  0
   -2.7248   -1.2135    0.0000 C   0  0
   -1.2990   -0.7500    0.0000 C   0  0
    0.0000   -1.5000    0.0000 N   0  0
    2.5965   -3.0004    0.0000 C   0  0
    3.8943   -3.7525    0.0000 C   0  0
  1  2  1  0
  2  3  1  0
  3  4  2  0
  3  5  1  0
  5  6  1  0
  6  7  2  0
  7  8  1  0
  8  9  2  0
  9 10  1  0
 10 11  2  0
 11 12  1  0
 12 13  1  0
 13 14  1  0
 15 14  1  4
 15 16  1  0
 16 17  1  0
 18 17  1  4
 18 19  1  0
 19 13  1  0
 18 20  1  0
 20 15  1  0
 12 21  2  0
 21 22  1  0
 22 23  1  0
 23 24  1  0
 24 25  1  0
 25 26  1  0
 26 27  1  0
 27 28  1  0
 28 29  1  0
 29 30  1  0
 29 31  2  0
 29 32  2  0
 28 33  1  0
 33 34  1  0
 34 25  1  0
 23 35  2  0
 35 36  1  0
 36 21  1  0
 36 37  2  0
 37 10  1  0
  9 38  1  0
 38 39  2  0
 39  6  1  0
M  END
> <assay_chembl_id>
CHEMBL1067296

> <assay_description>
Cytotoxicity against human LNCAP cells

> <document_journal>
Bioorg Med Chem Lett

> <molecule_chembl_id>
CHEMBL604167

> <standard_value>
120

> <IC50_uM>
0.12

> <Activity>
Yes

> <Canonical_Smiles>
CNC(=O)Nc1ccc(-c2nc(N3CC4CCC(C3)O4)c3sc(CN4CCN(S(C)(=O)=O)CC4)cc3n2)cc1

$$$$

  SciTegic03142313312D

 38 44  0  0  0  0            999 V2000
   -0.4662   -9.6104    0.0000 C   0  0
    0.2883   -8.3139    0.0000 N   0  0
    1.7883   -8.3192    0.0000 C   0  0
    2.5428   -7.0227    0.0000 C   0  0
    1.7974   -5.7210    0.0000 N   0  0
    2.5497   -4.4224    0.0000 C   0  0
    1.8032   -3.1233    0.0000 C   0  0
    2.4133   -1.7530    0.0000 C   0  0
    1.2990   -0.7500    0.0000 C   0  0
    1.2990    0.7500    0.0000 N   0  0
    0.0000    1.5000    0.0000 C   0  0
    0.0000    3.0008    0.0000 C   0  0
    1.2978    3.7529    0.0000 C   0  0
    1.2954    5.2529    0.0000 C   0  0
   -0.0048    6.0009    0.0000 C   0  0
   -0.0103    7.5017    0.0000 N   0  0
   -1.3123    8.2482    0.0000 C   0  0
   -2.6088    7.4938    0.0000 O   0  0
   -1.3178    9.7490    0.0000 N   0  0
   -2.6198   10.4955    0.0000 C   0  0
   -3.2970   11.7453    0.0000 C   0  0
   -4.0404   10.4425    0.0000 C   0  0
   -1.3026    5.2488    0.0000 C   0  0
   -1.3002    3.7488    0.0000 C   0  0
   -1.2990    0.7500    0.0000 N   0  0
   -1.2990   -0.7500    0.0000 C   0  0
   -2.5987   -1.5004    0.0000 N   0  0
   -3.7433   -1.7022    0.0000 C   0  0
   -5.3202   -0.8592    0.0000 C   0  0  3  0  0  0
   -5.5450    0.7713    0.0000 C   0  0
   -4.8582   -0.3820    0.0000 C   0  0
   -4.8897   -1.8341    0.0000 C   0  0  3  0  0  0
   -3.4588   -2.6405    0.0000 C   0  0
   -6.2422   -2.0421    0.0000 O   0  0
    0.0000   -1.5000    0.0000 C   0  0
    0.3114   -2.9665    0.0000 S   0  0
    0.2973   -5.7159    0.0000 C   0  0
   -0.4572   -7.0123    0.0000 C   0  0
  1  2  1  0
  2  3  1  0
  3  4  1  0
  4  5  1  0
  5  6  1  0
  6  7  1  0
  7  8  2  0
  8  9  1  0
  9 10  2  0
 10 11  1  0
 11 12  1  0
 12 13  2  0
 13 14  1  0
 14 15  2  0
 15 16  1  0
 16 17  1  0
 17 18  2  0
 17 19  1  0
 19 20  1  0
 20 21  1  0
 21 22  1  0
 22 20  1  0
 15 23  1  0
 23 24  2  0
 24 12  1  0
 11 25  2  0
 25 26  1  0
 26 27  1  0
 27 28  1  0
 29 28  1  4
 29 30  1  0
 30 31  1  0
 32 31  1  4
 32 33  1  0
 33 27  1  0
 32 34  1  0
 34 29  1  0
 26 35  2  0
 35  9  1  0
 35 36  1  0
 36  7  1  0
  5 37  1  0
 37 38  1  0
 38  2  1  0
M  END
> <assay_chembl_id>
CHEMBL1067296

> <assay_description>
Cytotoxicity against human LNCAP cells

> <document_journal>
Bioorg Med Chem Lett

> <molecule_chembl_id>
CHEMBL596426

> <standard_value>
400

> <IC50_uM>
0.4

> <Activity>
Yes

> <Canonical_Smiles>
CN1CCN(Cc2cc3nc(-c4ccc(NC(=O)NC5CC5)cc4)nc(N4CC5CCC(C4)O5)c3s2)CC1

$$$$

  SciTegic03142313312D

 41 47  0  0  0  0            999 V2000
   -1.9666   -9.6054    0.0000 C   0  0
   -0.4666   -9.6111    0.0000 S   0  0
    0.2780  -10.9132    0.0000 O   0  0
   -1.2218  -10.9071    0.0000 O   0  0
    0.2883   -8.3139    0.0000 N   0  0
    1.7883   -8.3192    0.0000 C   0  0
    2.5428   -7.0227    0.0000 C   0  0
    1.7974   -5.7210    0.0000 N   0  0
    2.5497   -4.4224    0.0000 C   0  0
    1.8032   -3.1233    0.0000 C   0  0
    2.4133   -1.7530    0.0000 C   0  0
    1.2990   -0.7500    0.0000 C   0  0
    1.2990    0.7500    0.0000 N   0  0
    0.0000    1.5000    0.0000 C   0  0
    0.0000    3.0008    0.0000 C   0  0
    1.2978    3.7529    0.0000 C   0  0
    1.2954    5.2529    0.0000 C   0  0
   -0.0048    6.0009    0.0000 C   0  0
   -0.0103    7.5017    0.0000 N   0  0
   -1.3123    8.2482    0.0000 C   0  0
   -2.6088    7.4938    0.0000 O   0  0
   -1.3178    9.7490    0.0000 N   0  0
   -2.6198   10.4955    0.0000 C   0  0
   -3.2970   11.7453    0.0000 C   0  0
   -4.0404   10.4425    0.0000 C   0  0
   -1.3026    5.2488    0.0000 C   0  0
   -1.3002    3.7488    0.0000 C   0  0
   -1.2990    0.7500    0.0000 N   0  0
   -1.2990   -0.7500    0.0000 C   0  0
   -2.5987   -1.5004    0.0000 N   0  0
   -3.7433   -1.7022    0.0000 C   0  0
   -5.3202   -0.8592    0.0000 C   0  0  3  0  0  0
   -5.5450    0.7713    0.0000 C   0  0
   -4.8582   -0.3820    0.0000 C   0  0
   -4.8897   -1.8341    0.0000 C   0  0  3  0  0  0
   -3.4588   -2.6405    0.0000 C   0  0
   -6.2422   -2.0421    0.0000 O   0  0
    0.0000   -1.5000    0.0000 C   0  0
    0.3114   -2.9665    0.0000 S   0  0
    0.2973   -5.7159    0.0000 C   0  0
   -0.4572   -7.0123    0.0000 C   0  0
  1  2  1  0
  2  3  2  0
  2  4  2  0
  2  5  1  0
  5  6  1  0
  6  7  1  0
  7  8  1  0
  8  9  1  0
  9 10  1  0
 10 11  2  0
 11 12  1  0
 12 13  2  0
 13 14  1  0
 14 15  1  0
 15 16  2  0
 16 17  1  0
 17 18  2  0
 18 19  1  0
 19 20  1  0
 20 21  2  0
 20 22  1  0
 22 23  1  0
 23 24  1  0
 24 25  1  0
 25 23  1  0
 18 26  1  0
 26 27  2  0
 27 15  1  0
 14 28  2  0
 28 29  1  0
 29 30  1  0
 30 31  1  0
 32 31  1  4
 32 33  1  0
 33 34  1  0
 35 34  1  4
 35 36  1  0
 36 30  1  0
 35 37  1  0
 37 32  1  0
 29 38  2  0
 38 12  1  0
 38 39  1  0
 39 10  1  0
  8 40  1  0
 40 41  1  0
 41  5  1  0
M  END
> <assay_chembl_id>
CHEMBL1067296

> <assay_description>
Cytotoxicity against human LNCAP cells

> <document_journal>
Bioorg Med Chem Lett

> <molecule_chembl_id>
CHEMBL594244

> <standard_value>
32

> <IC50_uM>
0.032

> <Activity>
Yes

> <Canonical_Smiles>
CS(=O)(=O)N1CCN(Cc2cc3nc(-c4ccc(NC(=O)NC5CC5)cc4)nc(N4CC5CCC(C4)O5)c3s2)CC1

$$$$

  SciTegic03142313312D

 41 47  0  0  0  0            999 V2000
   -0.4662   -9.6104    0.0000 C   0  0
    0.2883   -8.3139    0.0000 N   0  0
    1.7883   -8.3192    0.0000 C   0  0
    2.5428   -7.0227    0.0000 C   0  0
    1.7974   -5.7210    0.0000 N   0  0
    2.5497   -4.4224    0.0000 C   0  0
    1.8032   -3.1233    0.0000 C   0  0
    2.4133   -1.7530    0.0000 C   0  0
    1.2990   -0.7500    0.0000 C   0  0
    1.2990    0.7500    0.0000 N   0  0
    0.0000    1.5000    0.0000 C   0  0
    0.0000    3.0008    0.0000 C   0  0
    1.2978    3.7529    0.0000 C   0  0
    1.2954    5.2529    0.0000 C   0  0
   -0.0048    6.0009    0.0000 C   0  0
   -0.0103    7.5017    0.0000 N   0  0
   -1.3123    8.2482    0.0000 C   0  0
   -2.6088    7.4938    0.0000 O   0  0
   -1.3178    9.7490    0.0000 N   0  0
   -2.6198   10.4955    0.0000 C   0  0
   -2.6274   11.9955    0.0000 C   0  0
   -3.9302   12.7389    0.0000 C   0  0
   -5.2255   11.9824    0.0000 C   0  0
   -5.2179   10.4824    0.0000 N   0  0
   -3.9151    9.7390    0.0000 C   0  0
   -1.3026    5.2488    0.0000 C   0  0
   -1.3002    3.7488    0.0000 C   0  0
   -1.2990    0.7500    0.0000 N   0  0
   -1.2990   -0.7500    0.0000 C   0  0
   -2.5987   -1.5004    0.0000 N   0  0
   -3.7433   -1.7022    0.0000 C   0  0
   -5.3202   -0.8592    0.0000 C   0  0  3  0  0  0
   -5.5450    0.7713    0.0000 C   0  0
   -4.8582   -0.3820    0.0000 C   0  0
   -4.8897   -1.8341    0.0000 C   0  0  3  0  0  0
   -3.4588   -2.6405    0.0000 C   0  0
   -6.2422   -2.0421    0.0000 O   0  0
    0.0000   -1.5000    0.0000 C   0  0
    0.3114   -2.9665    0.0000 S   0  0
    0.2973   -5.7159    0.0000 C   0  0
   -0.4572   -7.0123    0.0000 C   0  0
  1  2  1  0
  2  3  1  0
  3  4  1  0
  4  5  1  0
  5  6  1  0
  6  7  1  0
  7  8  2  0
  8  9  1  0
  9 10  2  0
 10 11  1  0
 11 12  1  0
 12 13  2  0
 13 14  1  0
 14 15  2  0
 15 16  1  0
 16 17  1  0
 17 18  2  0
 17 19  1  0
 19 20  1  0
 20 21  2  0
 21 22  1  0
 22 23  2  0
 23 24  1  0
 24 25  2  0
 25 20  1  0
 15 26  1  0
 26 27  2  0
 27 12  1  0
 11 28  2  0
 28 29  1  0
 29 30  1  0
 30 31  1  0
 32 31  1  4
 32 33  1  0
 33 34  1  0
 35 34  1  4
 35 36  1  0
 36 30  1  0
 35 37  1  0
 37 32  1  0
 29 38  2  0
 38  9  1  0
 38 39  1  0
 39  7  1  0
  5 40  1  0
 40 41  1  0
 41  2  1  0
M  END
> <assay_chembl_id>
CHEMBL1067296

> <assay_description>
Cytotoxicity against human LNCAP cells

> <document_journal>
Bioorg Med Chem Lett

> <molecule_chembl_id>
CHEMBL594606

> <standard_value>
148

> <IC50_uM>
0.148

> <Activity>
Yes

> <Canonical_Smiles>
CN1CCN(Cc2cc3nc(-c4ccc(NC(=O)Nc5cccnc5)cc4)nc(N4CC5CCC(C4)O5)c3s2)CC1

$$$$

  SciTegic03142313312D

 44 50  0  0  0  0            999 V2000
   -1.9666   -9.6054    0.0000 C   0  0
   -0.4666   -9.6111    0.0000 S   0  0
    0.2780  -10.9132    0.0000 O   0  0
   -1.2218  -10.9071    0.0000 O   0  0
    0.2883   -8.3139    0.0000 N   0  0
    1.7883   -8.3192    0.0000 C   0  0
    2.5428   -7.0227    0.0000 C   0  0
    1.7974   -5.7210    0.0000 N   0  0
    2.5497   -4.4224    0.0000 C   0  0
    1.8032   -3.1233    0.0000 C   0  0
    2.4133   -1.7530    0.0000 C   0  0
    1.2990   -0.7500    0.0000 C   0  0
    1.2990    0.7500    0.0000 N   0  0
    0.0000    1.5000    0.0000 C   0  0
    0.0000    3.0008    0.0000 C   0  0
    1.2978    3.7529    0.0000 C   0  0
    1.2954    5.2529    0.0000 C   0  0
   -0.0048    6.0009    0.0000 C   0  0
   -0.0103    7.5017    0.0000 N   0  0
   -1.3123    8.2482    0.0000 C   0  0
   -2.6088    7.4938    0.0000 O   0  0
   -1.3178    9.7490    0.0000 N   0  0
   -2.6198   10.4955    0.0000 C   0  0
   -2.6274   11.9955    0.0000 C   0  0
   -3.9302   12.7389    0.0000 C   0  0
   -5.2255   11.9824    0.0000 C   0  0
   -5.2179   10.4824    0.0000 N   0  0
   -3.9151    9.7390    0.0000 C   0  0
   -1.3026    5.2488    0.0000 C   0  0
   -1.3002    3.7488    0.0000 C   0  0
   -1.2990    0.7500    0.0000 N   0  0
   -1.2990   -0.7500    0.0000 C   0  0
   -2.5987   -1.5004    0.0000 N   0  0
   -3.7433   -1.7022    0.0000 C   0  0
   -5.3202   -0.8592    0.0000 C   0  0  3  0  0  0
   -5.5450    0.7713    0.0000 C   0  0
   -4.8582   -0.3820    0.0000 C   0  0
   -4.8897   -1.8341    0.0000 C   0  0  3  0  0  0
   -3.4588   -2.6405    0.0000 C   0  0
   -6.2422   -2.0421    0.0000 O   0  0
    0.0000   -1.5000    0.0000 C   0  0
    0.3114   -2.9665    0.0000 S   0  0
    0.2973   -5.7159    0.0000 C   0  0
   -0.4572   -7.0123    0.0000 C   0  0
  1  2  1  0
  2  3  2  0
  2  4  2  0
  2  5  1  0
  5  6  1  0
  6  7  1  0
  7  8  1  0
  8  9  1  0
  9 10  1  0
 10 11  2  0
 11 12  1  0
 12 13  2  0
 13 14  1  0
 14 15  1  0
 15 16  2  0
 16 17  1  0
 17 18  2  0
 18 19  1  0
 19 20  1  0
 20 21  2  0
 20 22  1  0
 22 23  1  0
 23 24  2  0
 24 25  1  0
 25 26  2  0
 26 27  1  0
 27 28  2  0
 28 23  1  0
 18 29  1  0
 29 30  2  0
 30 15  1  0
 14 31  2  0
 31 32  1  0
 32 33  1  0
 33 34  1  0
 35 34  1  4
 35 36  1  0
 36 37  1  0
 38 37  1  4
 38 39  1  0
 39 33  1  0
 38 40  1  0
 40 35  1  0
 32 41  2  0
 41 12  1  0
 41 42  1  0
 42 10  1  0
  8 43  1  0
 43 44  1  0
 44  5  1  0
M  END
> <assay_chembl_id>
CHEMBL1067296

> <assay_description>
Cytotoxicity against human LNCAP cells

> <document_journal>
Bioorg Med Chem Lett

> <molecule_chembl_id>
CHEMBL594549

> <standard_value>
22

> <IC50_uM>
0.022

> <Activity>
Yes

> <Canonical_Smiles>
CS(=O)(=O)N1CCN(Cc2cc3nc(-c4ccc(NC(=O)Nc5cccnc5)cc4)nc(N4CC5CCC(C4)O5)c3s2)CC1

$$$$

  SciTegic03142313312D

 41 47  0  0  0  0            999 V2000
   -0.4662   -9.6104    0.0000 C   0  0
    0.2883   -8.3139    0.0000 N   0  0
    1.7883   -8.3192    0.0000 C   0  0
    2.5428   -7.0227    0.0000 C   0  0
    1.7974   -5.7210    0.0000 N   0  0
    2.5497   -4.4224    0.0000 C   0  0
    1.8032   -3.1233    0.0000 C   0  0
    2.4133   -1.7530    0.0000 C   0  0
    1.2990   -0.7500    0.0000 C   0  0
    1.2990    0.7500    0.0000 N   0  0
    0.0000    1.5000    0.0000 C   0  0
    0.0000    3.0008    0.0000 C   0  0
    1.2978    3.7529    0.0000 C   0  0
    1.2954    5.2529    0.0000 C   0  0
   -0.0048    6.0009    0.0000 C   0  0
   -0.0103    7.5017    0.0000 N   0  0
   -1.3123    8.2482    0.0000 C   0  0
   -2.6088    7.4938    0.0000 O   0  0
   -1.3178    9.7490    0.0000 N   0  0
   -2.6198   10.4955    0.0000 C   0  0
   -2.6274   11.9955    0.0000 C   0  0
   -3.9302   12.7389    0.0000 C   0  0
   -5.2255   11.9824    0.0000 N   0  0
   -5.2179   10.4824    0.0000 C   0  0
   -3.9151    9.7390    0.0000 C   0  0
   -1.3026    5.2488    0.0000 C   0  0
   -1.3002    3.7488    0.0000 C   0  0
   -1.2990    0.7500    0.0000 N   0  0
   -1.2990   -0.7500    0.0000 C   0  0
   -2.5987   -1.5004    0.0000 N   0  0
   -3.7433   -1.7022    0.0000 C   0  0
   -5.3202   -0.8592    0.0000 C   0  0  3  0  0  0
   -5.5450    0.7713    0.0000 C   0  0
   -4.8582   -0.3820    0.0000 C   0  0
   -4.8897   -1.8341    0.0000 C   0  0  3  0  0  0
   -3.4588   -2.6405    0.0000 C   0  0
   -6.2422   -2.0421    0.0000 O   0  0
    0.0000   -1.5000    0.0000 C   0  0
    0.3114   -2.9665    0.0000 S   0  0
    0.2973   -5.7159    0.0000 C   0  0
   -0.4572   -7.0123    0.0000 C   0  0
  1  2  1  0
  2  3  1  0
  3  4  1  0
  4  5  1  0
  5  6  1  0
  6  7  1  0
  7  8  2  0
  8  9  1  0
  9 10  2  0
 10 11  1  0
 11 12  1  0
 12 13  2  0
 13 14  1  0
 14 15  2  0
 15 16  1  0
 16 17  1  0
 17 18  2  0
 17 19  1  0
 19 20  1  0
 20 21  2  0
 21 22  1  0
 22 23  2  0
 23 24  1  0
 24 25  2  0
 25 20  1  0
 15 26  1  0
 26 27  2  0
 27 12  1  0
 11 28  2  0
 28 29  1  0
 29 30  1  0
 30 31  1  0
 32 31  1  4
 32 33  1  0
 33 34  1  0
 35 34  1  4
 35 36  1  0
 36 30  1  0
 35 37  1  0
 37 32  1  0
 29 38  2  0
 38  9  1  0
 38 39  1  0
 39  7  1  0
  5 40  1  0
 40 41  1  0
 41  2  1  0
M  END
> <assay_chembl_id>
CHEMBL1067296

> <assay_description>
Cytotoxicity against human LNCAP cells

> <document_journal>
Bioorg Med Chem Lett

> <molecule_chembl_id>
CHEMBL594173

> <standard_value>
200

> <IC50_uM>
0.2

> <Activity>
Yes

> <Canonical_Smiles>
CN1CCN(Cc2cc3nc(-c4ccc(NC(=O)Nc5ccncc5)cc4)nc(N4CC5CCC(C4)O5)c3s2)CC1

$$$$

  SciTegic03142313312D

 44 50  0  0  0  0            999 V2000
   -1.9666   -9.6054    0.0000 C   0  0
   -0.4666   -9.6111    0.0000 S   0  0
    0.2780  -10.9132    0.0000 O   0  0
   -1.2218  -10.9071    0.0000 O   0  0
    0.2883   -8.3139    0.0000 N   0  0
    1.7883   -8.3192    0.0000 C   0  0
    2.5428   -7.0227    0.0000 C   0  0
    1.7974   -5.7210    0.0000 N   0  0
    2.5497   -4.4224    0.0000 C   0  0
    1.8032   -3.1233    0.0000 C   0  0
    2.4133   -1.7530    0.0000 C   0  0
    1.2990   -0.7500    0.0000 C   0  0
    1.2990    0.7500    0.0000 N   0  0
    0.0000    1.5000    0.0000 C   0  0
    0.0000    3.0008    0.0000 C   0  0
    1.2978    3.7529    0.0000 C   0  0
    1.2954    5.2529    0.0000 C   0  0
   -0.0048    6.0009    0.0000 C   0  0
   -0.0103    7.5017    0.0000 N   0  0
   -1.3123    8.2482    0.0000 C   0  0
   -2.6088    7.4938    0.0000 O   0  0
   -1.3178    9.7490    0.0000 N   0  0
   -2.6198   10.4955    0.0000 C   0  0
   -2.6274   11.9955    0.0000 C   0  0
   -3.9302   12.7389    0.0000 C   0  0
   -5.2255   11.9824    0.0000 N   0  0
   -5.2179   10.4824    0.0000 C   0  0
   -3.9151    9.7390    0.0000 C   0  0
   -1.3026    5.2488    0.0000 C   0  0
   -1.3002    3.7488    0.0000 C   0  0
   -1.2990    0.7500    0.0000 N   0  0
   -1.2990   -0.7500    0.0000 C   0  0
   -2.5987   -1.5004    0.0000 N   0  0
   -3.7433   -1.7022    0.0000 C   0  0
   -5.3202   -0.8592    0.0000 C   0  0  3  0  0  0
   -5.5450    0.7713    0.0000 C   0  0
   -4.8582   -0.3820    0.0000 C   0  0
   -4.8897   -1.8341    0.0000 C   0  0  3  0  0  0
   -3.4588   -2.6405    0.0000 C   0  0
   -6.2422   -2.0421    0.0000 O   0  0
    0.0000   -1.5000    0.0000 C   0  0
    0.3114   -2.9665    0.0000 S   0  0
    0.2973   -5.7159    0.0000 C   0  0
   -0.4572   -7.0123    0.0000 C   0  0
  1  2  1  0
  2  3  2  0
  2  4  2  0
  2  5  1  0
  5  6  1  0
  6  7  1  0
  7  8  1  0
  8  9  1  0
  9 10  1  0
 10 11  2  0
 11 12  1  0
 12 13  2  0
 13 14  1  0
 14 15  1  0
 15 16  2  0
 16 17  1  0
 17 18  2  0
 18 19  1  0
 19 20  1  0
 20 21  2  0
 20 22  1  0
 22 23  1  0
 23 24  2  0
 24 25  1  0
 25 26  2  0
 26 27  1  0
 27 28  2  0
 28 23  1  0
 18 29  1  0
 29 30  2  0
 30 15  1  0
 14 31  2  0
 31 32  1  0
 32 33  1  0
 33 34  1  0
 35 34  1  4
 35 36  1  0
 36 37  1  0
 38 37  1  4
 38 39  1  0
 39 33  1  0
 38 40  1  0
 40 35  1  0
 32 41  2  0
 41 12  1  0
 41 42  1  0
 42 10  1  0
  8 43  1  0
 43 44  1  0
 44  5  1  0
M  END
> <assay_chembl_id>
CHEMBL1067296

> <assay_description>
Cytotoxicity against human LNCAP cells

> <document_journal>
Bioorg Med Chem Lett

> <molecule_chembl_id>
CHEMBL594431

> <standard_value>
120

> <IC50_uM>
0.12

> <Activity>
Yes

> <Canonical_Smiles>
CS(=O)(=O)N1CCN(Cc2cc3nc(-c4ccc(NC(=O)Nc5ccncc5)cc4)nc(N4CC5CCC(C4)O5)c3s2)CC1

$$$$

  SciTegic03142313312D

 31 34  0  0  0  0            999 V2000
    7.7795   -7.5156    0.0000 C   0  0
    7.7840   -6.0157    0.0000 N   0  0
    6.4870   -5.2605    0.0000 C   0  0
    5.1855   -6.0062    0.0000 O   0  0
    6.4915   -3.7597    0.0000 N   0  0
    5.1945   -3.0045    0.0000 C   0  0
    5.1969   -1.5045    0.0000 C   0  0
    3.8991   -0.7525    0.0000 C   0  0
    2.5987   -1.5004    0.0000 C   0  0
    1.2990   -0.7500    0.0000 C   0  0
    1.2990    0.7500    0.0000 N   0  0
    0.0000    1.5000    0.0000 C   0  0
    0.0000    3.0008    0.0000 C   0  0
    1.2978    3.7529    0.0000 C   0  0
    1.2954    5.2529    0.0000 C   0  0
   -0.0048    6.0009    0.0000 O   0  0
   -1.3026    5.2488    0.0000 C   0  0
   -1.3002    3.7488    0.0000 C   0  0
   -1.2990    0.7500    0.0000 C   0  0
   -2.7248    1.2135    0.0000 C   0  0
   -3.6065    0.0000    0.0000 N   0  0
   -2.7248   -1.2135    0.0000 N   0  0
   -3.1904   -2.6376    0.0000 C   0  0
   -4.6588   -2.9478    0.0000 C   0  0
   -5.1250   -4.3735    0.0000 F   0  0
   -5.6608   -1.8315    0.0000 F   0  0
   -6.1266   -3.2572    0.0000 F   0  0
   -1.2990   -0.7500    0.0000 C   0  0
    0.0000   -1.5000    0.0000 N   0  0
    2.5965   -3.0004    0.0000 C   0  0
    3.8943   -3.7525    0.0000 C   0  0
  1  2  1  0
  2  3  1  0
  3  4  2  0
  3  5  1  0
  5  6  1  0
  6  7  2  0
  7  8  1  0
  8  9  2  0
  9 10  1  0
 10 11  2  0
 11 12  1  0
 12 13  1  0
 13 14  2  0
 14 15  1  0
 15 16  1  0
 16 17  1  0
 17 18  1  0
 18 13  1  0
 12 19  2  0
 19 20  1  0
 20 21  2  0
 21 22  1  0
 22 23  1  0
 23 24  1  0
 24 25  1  0
 24 26  1  0
 24 27  1  0
 22 28  1  0
 28 19  1  0
 28 29  2  0
 29 10  1  0
  9 30  1  0
 30 31  2  0
 31  6  1  0
M  END
> <assay_chembl_id>
CHEMBL1074682

> <assay_description>
Cytotoxicity against human LNCAP cells after 1 to 2 hrs by MTS assay

> <document_journal>
Bioorg Med Chem Lett

> <molecule_chembl_id>
CHEMBL589858

> <standard_value>
260

> <IC50_uM>
0.26

> <Activity>
Yes

> <Canonical_Smiles>
CNC(=O)Nc1ccc(-c2nc(C3=CCOCC3)c3cnn(CC(F)(F)F)c3n2)cc1

$$$$

  SciTegic03142313312D

 31 34  0  0  0  0            999 V2000
    7.7795   -7.5156    0.0000 C   0  0
    7.7840   -6.0157    0.0000 N   0  0
    6.4870   -5.2605    0.0000 C   0  0
    5.1855   -6.0062    0.0000 O   0  0
    6.4915   -3.7597    0.0000 N   0  0
    5.1945   -3.0045    0.0000 C   0  0
    5.1969   -1.5045    0.0000 C   0  0
    3.8991   -0.7525    0.0000 C   0  0
    2.5987   -1.5004    0.0000 C   0  0
    1.2990   -0.7500    0.0000 C   0  0
    1.2990    0.7500    0.0000 N   0  0
    0.0000    1.5000    0.0000 C   0  0
    0.0000    3.0008    0.0000 N   0  0
    1.2978    3.7529    0.0000 C   0  0
    1.2954    5.2529    0.0000 C   0  0
   -0.0048    6.0009    0.0000 O   0  0
   -1.3026    5.2488    0.0000 C   0  0
   -1.3002    3.7488    0.0000 C   0  0
   -1.2990    0.7500    0.0000 C   0  0
   -2.7248    1.2135    0.0000 C   0  0
   -3.6065    0.0000    0.0000 N   0  0
   -2.7248   -1.2135    0.0000 N   0  0
   -3.1904   -2.6376    0.0000 C   0  0
   -4.6588   -2.9478    0.0000 C   0  0
   -5.1250   -4.3735    0.0000 F   0  0
   -5.6608   -1.8315    0.0000 F   0  0
   -6.1266   -3.2572    0.0000 F   0  0
   -1.2990   -0.7500    0.0000 C   0  0
    0.0000   -1.5000    0.0000 N   0  0
    2.5965   -3.0004    0.0000 C   0  0
    3.8943   -3.7525    0.0000 C   0  0
  1  2  1  0
  2  3  1  0
  3  4  2  0
  3  5  1  0
  5  6  1  0
  6  7  2  0
  7  8  1  0
  8  9  2  0
  9 10  1  0
 10 11  2  0
 11 12  1  0
 12 13  1  0
 13 14  1  0
 14 15  1  0
 15 16  1  0
 16 17  1  0
 17 18  1  0
 18 13  1  0
 12 19  2  0
 19 20  1  0
 20 21  2  0
 21 22  1  0
 22 23  1  0
 23 24  1  0
 24 25  1  0
 24 26  1  0
 24 27  1  0
 22 28  1  0
 28 19  1  0
 28 29  2  0
 29 10  1  0
  9 30  1  0
 30 31  2  0
 31  6  1  0
M  END
> <assay_chembl_id>
CHEMBL1074682

> <assay_description>
Cytotoxicity against human LNCAP cells after 1 to 2 hrs by MTS assay

> <document_journal>
Bioorg Med Chem Lett

> <molecule_chembl_id>
CHEMBL572932

> <standard_value>
230

> <IC50_uM>
0.23

> <Activity>
Yes

> <Canonical_Smiles>
CNC(=O)Nc1ccc(-c2nc(N3CCOCC3)c3cnn(CC(F)(F)F)c3n2)cc1

$$$$

  SciTegic03142313312D

 33 36  0  0  0  0            999 V2000
    5.1855   -6.0062    0.0000 O   0  0
    6.4870   -5.2605    0.0000 C   0  0
    7.7840   -6.0157    0.0000 N   0  0
    7.7795   -7.5165    0.0000 C   0  0
    9.0765   -8.2716    0.0000 C   0  0
    9.0720   -9.7716    0.0000 F   0  0
    6.4915   -3.7597    0.0000 N   0  0
    5.1945   -3.0045    0.0000 C   0  0
    5.1969   -1.5045    0.0000 C   0  0
    3.8991   -0.7525    0.0000 C   0  0
    2.5987   -1.5004    0.0000 C   0  0
    1.2990   -0.7500    0.0000 C   0  0
    1.2990    0.7500    0.0000 N   0  0
    0.0000    1.5000    0.0000 C   0  0
    0.0000    3.0008    0.0000 C   0  0
    1.2978    3.7529    0.0000 C   0  0
    1.2954    5.2529    0.0000 C   0  0
   -0.0048    6.0009    0.0000 O   0  0
   -1.3026    5.2488    0.0000 C   0  0
   -1.3002    3.7488    0.0000 C   0  0
   -1.2990    0.7500    0.0000 C   0  0
   -2.7248    1.2135    0.0000 C   0  0
   -3.6065    0.0000    0.0000 N   0  0
   -2.7248   -1.2135    0.0000 N   0  0
   -3.1904   -2.6376    0.0000 C   0  0
   -4.6588   -2.9478    0.0000 C   0  0
   -5.1250   -4.3735    0.0000 F   0  0
   -5.6608   -1.8315    0.0000 F   0  0
   -6.1266   -3.2572    0.0000 F   0  0
   -1.2990   -0.7500    0.0000 C   0  0
    0.0000   -1.5000    0.0000 N   0  0
    2.5965   -3.0004    0.0000 C   0  0
    3.8943   -3.7525    0.0000 C   0  0
  1  2  2  0
  2  3  1  0
  3  4  1  0
  4  5  1  0
  5  6  1  0
  2  7  1  0
  7  8  1  0
  8  9  2  0
  9 10  1  0
 10 11  2  0
 11 12  1  0
 12 13  2  0
 13 14  1  0
 14 15  1  0
 15 16  2  0
 16 17  1  0
 17 18  1  0
 18 19  1  0
 19 20  1  0
 20 15  1  0
 14 21  2  0
 21 22  1  0
 22 23  2  0
 23 24  1  0
 24 25  1  0
 25 26  1  0
 26 27  1  0
 26 28  1  0
 26 29  1  0
 24 30  1  0
 30 21  1  0
 30 31  2  0
 31 12  1  0
 11 32  1  0
 32 33  2  0
 33  8  1  0
M  END
> <assay_chembl_id>
CHEMBL1074682

> <assay_description>
Cytotoxicity against human LNCAP cells after 1 to 2 hrs by MTS assay

> <document_journal>
Bioorg Med Chem Lett

> <molecule_chembl_id>
CHEMBL590104

> <standard_value>
72

> <IC50_uM>
0.072

> <Activity>
Yes

> <Canonical_Smiles>
O=C(NCCF)Nc1ccc(-c2nc(C3=CCOCC3)c3cnn(CC(F)(F)F)c3n2)cc1

$$$$

  SciTegic03142313312D

 33 36  0  0  0  0            999 V2000
    5.1855   -6.0062    0.0000 O   0  0
    6.4870   -5.2605    0.0000 C   0  0
    7.7840   -6.0157    0.0000 N   0  0
    7.7795   -7.5165    0.0000 C   0  0
    9.0765   -8.2716    0.0000 C   0  0
    9.0720   -9.7716    0.0000 F   0  0
    6.4915   -3.7597    0.0000 N   0  0
    5.1945   -3.0045    0.0000 C   0  0
    5.1969   -1.5045    0.0000 C   0  0
    3.8991   -0.7525    0.0000 C   0  0
    2.5987   -1.5004    0.0000 C   0  0
    1.2990   -0.7500    0.0000 C   0  0
    1.2990    0.7500    0.0000 N   0  0
    0.0000    1.5000    0.0000 C   0  0
    0.0000    3.0008    0.0000 N   0  0
    1.2978    3.7529    0.0000 C   0  0
    1.2954    5.2529    0.0000 C   0  0
   -0.0048    6.0009    0.0000 O   0  0
   -1.3026    5.2488    0.0000 C   0  0
   -1.3002    3.7488    0.0000 C   0  0
   -1.2990    0.7500    0.0000 C   0  0
   -2.7248    1.2135    0.0000 C   0  0
   -3.6065    0.0000    0.0000 N   0  0
   -2.7248   -1.2135    0.0000 N   0  0
   -3.1904   -2.6376    0.0000 C   0  0
   -4.6588   -2.9478    0.0000 C   0  0
   -5.1250   -4.3735    0.0000 F   0  0
   -5.6608   -1.8315    0.0000 F   0  0
   -6.1266   -3.2572    0.0000 F   0  0
   -1.2990   -0.7500    0.0000 C   0  0
    0.0000   -1.5000    0.0000 N   0  0
    2.5965   -3.0004    0.0000 C   0  0
    3.8943   -3.7525    0.0000 C   0  0
  1  2  2  0
  2  3  1  0
  3  4  1  0
  4  5  1  0
  5  6  1  0
  2  7  1  0
  7  8  1  0
  8  9  2  0
  9 10  1  0
 10 11  2  0
 11 12  1  0
 12 13  2  0
 13 14  1  0
 14 15  1  0
 15 16  1  0
 16 17  1  0
 17 18  1  0
 18 19  1  0
 19 20  1  0
 20 15  1  0
 14 21  2  0
 21 22  1  0
 22 23  2  0
 23 24  1  0
 24 25  1  0
 25 26  1  0
 26 27  1  0
 26 28  1  0
 26 29  1  0
 24 30  1  0
 30 21  1  0
 30 31  2  0
 31 12  1  0
 11 32  1  0
 32 33  2  0
 33  8  1  0
M  END
> <assay_chembl_id>
CHEMBL1074682

> <assay_description>
Cytotoxicity against human LNCAP cells after 1 to 2 hrs by MTS assay

> <document_journal>
Bioorg Med Chem Lett

> <molecule_chembl_id>
CHEMBL574234

> <standard_value>
60

> <IC50_uM>
0.06

> <Activity>
Yes

> <Canonical_Smiles>
O=C(NCCF)Nc1ccc(-c2nc(N3CCOCC3)c3cnn(CC(F)(F)F)c3n2)cc1

$$$$

  SciTegic03142313312D

 36 40  0  0  0  0            999 V2000
    5.1855   -6.0062    0.0000 O   0  0
    6.4870   -5.2605    0.0000 C   0  0
    6.4915   -3.7597    0.0000 N   0  0
    5.1945   -3.0045    0.0000 C   0  0
    5.1969   -1.5045    0.0000 C   0  0
    3.8991   -0.7525    0.0000 C   0  0
    2.5987   -1.5004    0.0000 C   0  0
    1.2990   -0.7500    0.0000 C   0  0
    1.2990    0.7500    0.0000 N   0  0
    0.0000    1.5000    0.0000 C   0  0
    0.0000    3.0008    0.0000 C   0  0
    1.2978    3.7529    0.0000 C   0  0
    1.2954    5.2529    0.0000 C   0  0
   -0.0048    6.0009    0.0000 O   0  0
   -1.3026    5.2488    0.0000 C   0  0
   -1.3002    3.7488    0.0000 C   0  0
   -1.2990    0.7500    0.0000 C   0  0
   -2.7248    1.2135    0.0000 C   0  0
   -3.6065    0.0000    0.0000 N   0  0
   -2.7248   -1.2135    0.0000 N   0  0
   -3.1904   -2.6376    0.0000 C   0  0
   -4.6588   -2.9478    0.0000 C   0  0
   -5.1250   -4.3735    0.0000 F   0  0
   -5.6608   -1.8315    0.0000 F   0  0
   -6.1266   -3.2572    0.0000 F   0  0
   -1.2990   -0.7500    0.0000 C   0  0
    0.0000   -1.5000    0.0000 N   0  0
    2.5965   -3.0004    0.0000 C   0  0
    3.8943   -3.7525    0.0000 C   0  0
    7.7840   -6.0157    0.0000 N   0  0
    7.7795   -7.5165    0.0000 C   0  0
    9.0747   -8.2731    0.0000 C   0  0
    9.0672   -9.7731    0.0000 C   0  0
    7.7644  -10.5165    0.0000 C   0  0
    6.4691   -9.7600    0.0000 N   0  0
    6.4767   -8.2600    0.0000 C   0  0
  1  2  2  0
  2  3  1  0
  3  4  1  0
  4  5  2  0
  5  6  1  0
  6  7  2  0
  7  8  1  0
  8  9  2  0
  9 10  1  0
 10 11  1  0
 11 12  2  0
 12 13  1  0
 13 14  1  0
 14 15  1  0
 15 16  1  0
 16 11  1  0
 10 17  2  0
 17 18  1  0
 18 19  2  0
 19 20  1  0
 20 21  1  0
 21 22  1  0
 22 23  1  0
 22 24  1  0
 22 25  1  0
 20 26  1  0
 26 17  1  0
 26 27  2  0
 27  8  1  0
  7 28  1  0
 28 29  2  0
 29  4  1  0
  2 30  1  0
 30 31  1  0
 31 32  2  0
 32 33  1  0
 33 34  2  0
 34 35  1  0
 35 36  2  0
 36 31  1  0
M  END
> <assay_chembl_id>
CHEMBL1074682

> <assay_description>
Cytotoxicity against human LNCAP cells after 1 to 2 hrs by MTS assay

> <document_journal>
Bioorg Med Chem Lett

> <molecule_chembl_id>
CHEMBL590105

> <standard_value>
380

> <IC50_uM>
0.38

> <Activity>
Yes

> <Canonical_Smiles>
O=C(Nc1ccc(-c2nc(C3=CCOCC3)c3cnn(CC(F)(F)F)c3n2)cc1)Nc1cccnc1

$$$$

  SciTegic03142313312D

 27 30  0  0  0  0            999 V2000
    9.0758   -8.2712    0.0000 C   0  0
    7.7795   -7.5165    0.0000 C   0  0
    7.7840   -6.0157    0.0000 N   0  0
    6.4870   -5.2605    0.0000 C   0  0
    5.1855   -6.0062    0.0000 O   0  0
    6.4915   -3.7597    0.0000 N   0  0
    5.1945   -3.0045    0.0000 C   0  0
    5.1969   -1.5045    0.0000 C   0  0
    3.8991   -0.7525    0.0000 C   0  0
    2.5987   -1.5004    0.0000 C   0  0
    1.2990   -0.7500    0.0000 C   0  0
    1.2990    0.7500    0.0000 N   0  0
    0.0000    1.5000    0.0000 C   0  0
    0.0000    3.0008    0.0000 C   0  0
    1.2978    3.7529    0.0000 C   0  0
    1.2954    5.2529    0.0000 C   0  0
   -0.0048    6.0009    0.0000 O   0  0
   -1.3026    5.2488    0.0000 C   0  0
   -1.3002    3.7488    0.0000 C   0  0
   -1.2990    0.7500    0.0000 C   0  0
   -2.7248    1.2135    0.0000 S   0  0
   -3.6065    0.0000    0.0000 C   0  0
   -2.7248   -1.2135    0.0000 C   0  0
   -1.2990   -0.7500    0.0000 C   0  0
    0.0000   -1.5000    0.0000 N   0  0
    2.5965   -3.0004    0.0000 C   0  0
    3.8943   -3.7525    0.0000 C   0  0
  1  2  1  0
  2  3  1  0
  3  4  1  0
  4  5  2  0
  4  6  1  0
  6  7  1  0
  7  8  2  0
  8  9  1  0
  9 10  2  0
 10 11  1  0
 11 12  2  0
 12 13  1  0
 13 14  1  0
 14 15  2  0
 15 16  1  0
 16 17  1  0
 17 18  1  0
 18 19  1  0
 19 14  1  0
 13 20  2  0
 20 21  1  0
 21 22  1  0
 22 23  2  0
 23 24  1  0
 24 20  1  0
 24 25  2  0
 25 11  1  0
 10 26  1  0
 26 27  2  0
 27  7  1  0
M  END
> <assay_chembl_id>
CHEMBL1074682

> <assay_description>
Cytotoxicity against human LNCAP cells after 1 to 2 hrs by MTS assay

> <document_journal>
Bioorg Med Chem Lett

> <molecule_chembl_id>
CHEMBL600447

> <standard_value>
470

> <IC50_uM>
0.47

> <Activity>
Yes

> <Canonical_Smiles>
CCNC(=O)Nc1ccc(-c2nc(C3=CCOCC3)c3sccc3n2)cc1

$$$$

  SciTegic03142313312D

 31 35  0  0  0  0            999 V2000
    5.1855   -6.0062    0.0000 O   0  0
    6.4870   -5.2605    0.0000 C   0  0
    7.7840   -6.0157    0.0000 N   0  0
    7.7795   -7.5165    0.0000 C   0  0
    9.0747   -8.2731    0.0000 C   0  0
    9.0672   -9.7731    0.0000 C   0  0
    7.7644  -10.5165    0.0000 C   0  0
    6.4691   -9.7600    0.0000 C   0  0
    6.4767   -8.2600    0.0000 C   0  0
    6.4915   -3.7597    0.0000 N   0  0
    5.1945   -3.0045    0.0000 C   0  0
    5.1969   -1.5045    0.0000 C   0  0
    3.8991   -0.7525    0.0000 C   0  0
    2.5987   -1.5004    0.0000 C   0  0
    1.2990   -0.7500    0.0000 C   0  0
    1.2990    0.7500    0.0000 N   0  0
    0.0000    1.5000    0.0000 C   0  0
    0.0000    3.0008    0.0000 C   0  0
    1.2978    3.7529    0.0000 C   0  0
    1.2954    5.2529    0.0000 C   0  0
   -0.0048    6.0009    0.0000 O   0  0
   -1.3026    5.2488    0.0000 C   0  0
   -1.3002    3.7488    0.0000 C   0  0
   -1.2990    0.7500    0.0000 C   0  0
   -2.7248    1.2135    0.0000 S   0  0
   -3.6065    0.0000    0.0000 C   0  0
   -2.7248   -1.2135    0.0000 C   0  0
   -1.2990   -0.7500    0.0000 C   0  0
    0.0000   -1.5000    0.0000 N   0  0
    2.5965   -3.0004    0.0000 C   0  0
    3.8943   -3.7525    0.0000 C   0  0
  1  2  2  0
  2  3  1  0
  3  4  1  0
  4  5  2  0
  5  6  1  0
  6  7  2  0
  7  8  1  0
  8  9  2  0
  9  4  1  0
  2 10  1  0
 10 11  1  0
 11 12  2  0
 12 13  1  0
 13 14  2  0
 14 15  1  0
 15 16  2  0
 16 17  1  0
 17 18  1  0
 18 19  2  0
 19 20  1  0
 20 21  1  0
 21 22  1  0
 22 23  1  0
 23 18  1  0
 17 24  2  0
 24 25  1  0
 25 26  1  0
 26 27  2  0
 27 28  1  0
 28 24  1  0
 28 29  2  0
 29 15  1  0
 14 30  1  0
 30 31  2  0
 31 11  1  0
M  END
> <assay_chembl_id>
CHEMBL1074682

> <assay_description>
Cytotoxicity against human LNCAP cells after 1 to 2 hrs by MTS assay

> <document_journal>
Bioorg Med Chem Lett

> <molecule_chembl_id>
CHEMBL589622

> <standard_value>
800

> <IC50_uM>
0.8

> <Activity>
Yes

> <Canonical_Smiles>
O=C(Nc1ccccc1)Nc1ccc(-c2nc(C3=CCOCC3)c3sccc3n2)cc1

$$$$

  SciTegic03142313312D

 31 35  0  0  0  0            999 V2000
    5.1855   -6.0062    0.0000 O   0  0
    6.4870   -5.2605    0.0000 C   0  0
    6.4915   -3.7597    0.0000 N   0  0
    5.1945   -3.0045    0.0000 C   0  0
    5.1969   -1.5045    0.0000 C   0  0
    3.8991   -0.7525    0.0000 C   0  0
    2.5987   -1.5004    0.0000 C   0  0
    1.2990   -0.7500    0.0000 C   0  0
    1.2990    0.7500    0.0000 N   0  0
    0.0000    1.5000    0.0000 C   0  0
    0.0000    3.0008    0.0000 C   0  0
    1.2978    3.7529    0.0000 C   0  0
    1.2954    5.2529    0.0000 C   0  0
   -0.0048    6.0009    0.0000 O   0  0
   -1.3026    5.2488    0.0000 C   0  0
   -1.3002    3.7488    0.0000 C   0  0
   -1.2990    0.7500    0.0000 C   0  0
   -2.7248    1.2135    0.0000 S   0  0
   -3.6065    0.0000    0.0000 C   0  0
   -2.7248   -1.2135    0.0000 C   0  0
   -1.2990   -0.7500    0.0000 C   0  0
    0.0000   -1.5000    0.0000 N   0  0
    2.5965   -3.0004    0.0000 C   0  0
    3.8943   -3.7525    0.0000 C   0  0
    7.7840   -6.0157    0.0000 N   0  0
    7.7795   -7.5165    0.0000 C   0  0
    9.0747   -8.2731    0.0000 C   0  0
    9.0672   -9.7731    0.0000 C   0  0
    7.7644  -10.5165    0.0000 C   0  0
    6.4691   -9.7600    0.0000 N   0  0
    6.4767   -8.2600    0.0000 C   0  0
  1  2  2  0
  2  3  1  0
  3  4  1  0
  4  5  2  0
  5  6  1  0
  6  7  2  0
  7  8  1  0
  8  9  2  0
  9 10  1  0
 10 11  1  0
 11 12  2  0
 12 13  1  0
 13 14  1  0
 14 15  1  0
 15 16  1  0
 16 11  1  0
 10 17  2  0
 17 18  1  0
 18 19  1  0
 19 20  2  0
 20 21  1  0
 21 17  1  0
 21 22  2  0
 22  8  1  0
  7 23  1  0
 23 24  2  0
 24  4  1  0
  2 25  1  0
 25 26  1  0
 26 27  2  0
 27 28  1  0
 28 29  2  0
 29 30  1  0
 30 31  2  0
 31 26  1  0
M  END
> <assay_chembl_id>
CHEMBL1074682

> <assay_description>
Cytotoxicity against human LNCAP cells after 1 to 2 hrs by MTS assay

> <document_journal>
Bioorg Med Chem Lett

> <molecule_chembl_id>
CHEMBL601895

> <standard_value>
210

> <IC50_uM>
0.21

> <Activity>
Yes

> <Canonical_Smiles>
O=C(Nc1ccc(-c2nc(C3=CCOCC3)c3sccc3n2)cc1)Nc1cccnc1

$$$$

  SciTegic03142313312D

 31 35  0  0  0  0            999 V2000
    5.1855   -6.0062    0.0000 O   0  0
    6.4870   -5.2605    0.0000 C   0  0
    7.7840   -6.0157    0.0000 N   0  0
    7.7795   -7.5165    0.0000 C   0  0
    9.0747   -8.2731    0.0000 C   0  0
    9.0672   -9.7731    0.0000 C   0  0
    7.7644  -10.5165    0.0000 N   0  0
    6.4691   -9.7600    0.0000 C   0  0
    6.4767   -8.2600    0.0000 C   0  0
    6.4915   -3.7597    0.0000 N   0  0
    5.1945   -3.0045    0.0000 C   0  0
    5.1969   -1.5045    0.0000 C   0  0
    3.8991   -0.7525    0.0000 C   0  0
    2.5987   -1.5004    0.0000 C   0  0
    1.2990   -0.7500    0.0000 C   0  0
    1.2990    0.7500    0.0000 N   0  0
    0.0000    1.5000    0.0000 C   0  0
    0.0000    3.0008    0.0000 C   0  0
    1.2978    3.7529    0.0000 C   0  0
    1.2954    5.2529    0.0000 C   0  0
   -0.0048    6.0009    0.0000 O   0  0
   -1.3026    5.2488    0.0000 C   0  0
   -1.3002    3.7488    0.0000 C   0  0
   -1.2990    0.7500    0.0000 C   0  0
   -2.7248    1.2135    0.0000 S   0  0
   -3.6065    0.0000    0.0000 C   0  0
   -2.7248   -1.2135    0.0000 C   0  0
   -1.2990   -0.7500    0.0000 C   0  0
    0.0000   -1.5000    0.0000 N   0  0
    2.5965   -3.0004    0.0000 C   0  0
    3.8943   -3.7525    0.0000 C   0  0
  1  2  2  0
  2  3  1  0
  3  4  1  0
  4  5  2  0
  5  6  1  0
  6  7  2  0
  7  8  1  0
  8  9  2  0
  9  4  1  0
  2 10  1  0
 10 11  1  0
 11 12  2  0
 12 13  1  0
 13 14  2  0
 14 15  1  0
 15 16  2  0
 16 17  1  0
 17 18  1  0
 18 19  2  0
 19 20  1  0
 20 21  1  0
 21 22  1  0
 22 23  1  0
 23 18  1  0
 17 24  2  0
 24 25  1  0
 25 26  1  0
 26 27  2  0
 27 28  1  0
 28 24  1  0
 28 29  2  0
 29 15  1  0
 14 30  1  0
 30 31  2  0
 31 11  1  0
M  END
> <assay_chembl_id>
CHEMBL1074682

> <assay_description>
Cytotoxicity against human LNCAP cells after 1 to 2 hrs by MTS assay

> <document_journal>
Bioorg Med Chem Lett

> <molecule_chembl_id>
CHEMBL601689

> <standard_value>
200

> <IC50_uM>
0.2

> <Activity>
Yes

> <Canonical_Smiles>
O=C(Nc1ccncc1)Nc1ccc(-c2nc(C3=CCOCC3)c3sccc3n2)cc1

$$$$

  SciTegic03142313312D

 35 40  0  0  1  0            999 V2000
   -0.6923   -4.0811    0.0000 C   0  0
    0.3114   -2.9665    0.0000 C   0  0
    1.8032   -3.1233    0.0000 N   0  0
    2.4133   -1.7530    0.0000 N   0  0
    1.2990   -0.7500    0.0000 C   0  0
    1.2990    0.7500    0.0000 C   0  0
    0.0000    1.5000    0.0000 C   0  0
   -1.2990    0.7500    0.0000 C   0  0
   -2.5987    1.5004    0.0000 C   0  0
   -3.8967    0.7484    0.0000 C   0  0
   -5.1969    1.4963    0.0000 C   0  0
   -6.4970    0.7465    0.0000 O   0  0
   -7.7969    1.4967    0.0000 C   0  0
   -9.0970    0.7469    0.0000 C   0  0  1  0  0  0
   -9.0972   -0.7531    0.0000 N   0  0
  -10.3969    1.4971    0.0000 C   0  0
  -11.6970    0.7473    0.0000 C   0  0
  -11.8328   -0.7338    0.0000 C   0  0
  -13.2996   -1.0477    0.0000 N   0  0
  -14.0508    0.2497    0.0000 C   0  0
  -15.5184    0.5595    0.0000 C   0  0
  -15.9840    1.9854    0.0000 C   0  0
  -14.9819    3.1015    0.0000 C   0  0
  -13.5142    2.7918    0.0000 C   0  0
  -13.0487    1.3658    0.0000 C   0  0
   -5.1993    2.9963    0.0000 C   0  0
   -3.9014    3.7484    0.0000 N   0  0
   -2.6012    3.0004    0.0000 C   0  0
   -1.3027    3.7529    0.0000 C   0  0
    0.0506    3.1362    0.0000 C   0  0
    1.0508    4.2541    0.0000 C   0  0
    0.2966    5.5507    0.0000 O   0  0
   -1.1696    5.2342    0.0000 C   0  0
   -1.2990   -0.7500    0.0000 C   0  0
    0.0000   -1.5000    0.0000 C   0  0
  1  2  1  0
  2  3  1  0
  3  4  1  0
  4  5  2  0
  5  6  1  0
  6  7  2  0
  7  8  1  0
  8  9  1  0
  9 10  2  0
 10 11  1  0
 11 12  1  0
 12 13  1  0
 13 14  1  0
 14 15  1  1
 14 16  1  0
 16 17  1  0
 17 18  2  0
 18 19  1  0
 19 20  1  0
 20 21  2  0
 21 22  1  0
 22 23  2  0
 23 24  1  0
 24 25  2  0
 25 17  1  0
 25 20  1  0
 11 26  2  0
 26 27  1  0
 27 28  2  0
 28  9  1  0
 28 29  1  0
 29 30  1  0
 30 31  2  0
 31 32  1  0
 32 33  1  0
 33 29  2  0
  8 34  2  0
 34 35  1  0
 35  2  2  0
 35  5  1  0
M  END
> <assay_chembl_id>
CHEMBL1071319

> <assay_description>
Cytotoxicity against human LNCAP cells

> <document_journal>
Bioorg Med Chem Lett

> <molecule_chembl_id>
CHEMBL593490

> <standard_value>
190

> <IC50_uM>
0.19

> <Activity>
Yes

> <Canonical_Smiles>
Cc1[nH]nc2ccc(-c3cc(OC[C@@H](N)Cc4c[nH]c5ccccc45)cnc3-c3ccoc3)cc12

$$$$

  SciTegic03142313312D

 35 40  0  0  1  0            999 V2000
   -0.6923   -4.0811    0.0000 C   0  0
    0.3114   -2.9665    0.0000 C   0  0
    1.8032   -3.1233    0.0000 N   0  0
    2.4133   -1.7530    0.0000 N   0  0
    1.2990   -0.7500    0.0000 C   0  0
    1.2990    0.7500    0.0000 N   0  0
    0.0000    1.5000    0.0000 C   0  0
   -1.2990    0.7500    0.0000 C   0  0
   -2.5987    1.5004    0.0000 C   0  0
   -3.8967    0.7484    0.0000 C   0  0
   -5.1969    1.4963    0.0000 C   0  0
   -6.4970    0.7465    0.0000 O   0  0
   -7.7969    1.4967    0.0000 C   0  0
   -9.0970    0.7469    0.0000 C   0  0  1  0  0  0
   -9.0972   -0.7531    0.0000 N   0  0
  -10.3969    1.4971    0.0000 C   0  0
  -11.6970    0.7473    0.0000 C   0  0
  -11.8328   -0.7338    0.0000 C   0  0
  -13.2996   -1.0477    0.0000 N   0  0
  -14.0508    0.2497    0.0000 C   0  0
  -15.5184    0.5595    0.0000 C   0  0
  -15.9840    1.9854    0.0000 C   0  0
  -14.9819    3.1015    0.0000 C   0  0
  -13.5142    2.7918    0.0000 C   0  0
  -13.0487    1.3658    0.0000 C   0  0
   -5.1993    2.9963    0.0000 C   0  0
   -3.9014    3.7484    0.0000 N   0  0
   -2.6012    3.0004    0.0000 C   0  0
   -1.3027    3.7529    0.0000 C   0  0
    0.0506    3.1362    0.0000 C   0  0
    1.0508    4.2541    0.0000 C   0  0
    0.2966    5.5507    0.0000 O   0  0
   -1.1696    5.2342    0.0000 C   0  0
   -1.2990   -0.7500    0.0000 C   0  0
    0.0000   -1.5000    0.0000 C   0  0
  1  2  1  0
  2  3  2  0
  3  4  1  0
  4  5  1  0
  5  6  2  0
  6  7  1  0
  7  8  2  0
  8  9  1  0
  9 10  2  0
 10 11  1  0
 11 12  1  0
 12 13  1  0
 13 14  1  0
 14 15  1  1
 14 16  1  0
 16 17  1  0
 17 18  2  0
 18 19  1  0
 19 20  1  0
 20 21  2  0
 21 22  1  0
 22 23  2  0
 23 24  1  0
 24 25  2  0
 25 17  1  0
 25 20  1  0
 11 26  2  0
 26 27  1  0
 27 28  2  0
 28  9  1  0
 28 29  1  0
 29 30  1  0
 30 31  2  0
 31 32  1  0
 32 33  1  0
 33 29  2  0
  8 34  1  0
 34 35  2  0
 35  2  1  0
 35  5  1  0
M  END
> <assay_chembl_id>
CHEMBL1071319

> <assay_description>
Cytotoxicity against human LNCAP cells

> <document_journal>
Bioorg Med Chem Lett

> <molecule_chembl_id>
CHEMBL596072

> <standard_value>
85

> <IC50_uM>
0.085

> <Activity>
Yes

> <Canonical_Smiles>
Cc1n[nH]c2ncc(-c3cc(OC[C@@H](N)Cc4c[nH]c5ccccc45)cnc3-c3ccoc3)cc12

$$$$

  SciTegic03142313312D

 35 40  0  0  1  0            999 V2000
   -0.6923   -4.0811    0.0000 C   0  0
    0.3114   -2.9665    0.0000 C   0  0
    1.8032   -3.1233    0.0000 N   0  0
    2.4133   -1.7530    0.0000 N   0  0
    1.2990   -0.7500    0.0000 C   0  0
    1.2990    0.7500    0.0000 C   0  0
    0.0000    1.5000    0.0000 C   0  0
   -1.2990    0.7500    0.0000 C   0  0
   -2.5987    1.5004    0.0000 C   0  0
   -3.8967    0.7484    0.0000 C   0  0
   -5.1969    1.4963    0.0000 C   0  0
   -6.4970    0.7465    0.0000 O   0  0
   -7.7969    1.4967    0.0000 C   0  0
   -9.0970    0.7469    0.0000 C   0  0  1  0  0  0
   -9.0972   -0.7531    0.0000 N   0  0
  -10.3969    1.4971    0.0000 C   0  0
  -11.6970    0.7473    0.0000 C   0  0
  -11.8328   -0.7338    0.0000 C   0  0
  -13.2996   -1.0477    0.0000 N   0  0
  -14.0508    0.2497    0.0000 C   0  0
  -15.5184    0.5595    0.0000 C   0  0
  -15.9840    1.9854    0.0000 C   0  0
  -14.9819    3.1015    0.0000 C   0  0
  -13.5142    2.7918    0.0000 C   0  0
  -13.0487    1.3658    0.0000 C   0  0
   -5.1993    2.9963    0.0000 C   0  0
   -3.9014    3.7484    0.0000 N   0  0
   -2.6012    3.0004    0.0000 C   0  0
   -1.3027    3.7529    0.0000 C   0  0
    0.0506    3.1362    0.0000 C   0  0
    1.0508    4.2541    0.0000 C   0  0
    0.2966    5.5507    0.0000 O   0  0
   -1.1696    5.2342    0.0000 C   0  0
   -1.2990   -0.7500    0.0000 N   0  0
    0.0000   -1.5000    0.0000 C   0  0
  1  2  1  0
  2  3  2  0
  3  4  1  0
  4  5  1  0
  5  6  2  0
  6  7  1  0
  7  8  2  0
  8  9  1  0
  9 10  2  0
 10 11  1  0
 11 12  1  0
 12 13  1  0
 13 14  1  0
 14 15  1  1
 14 16  1  0
 16 17  1  0
 17 18  2  0
 18 19  1  0
 19 20  1  0
 20 21  2  0
 21 22  1  0
 22 23  2  0
 23 24  1  0
 24 25  2  0
 25 17  1  0
 25 20  1  0
 11 26  2  0
 26 27  1  0
 27 28  2  0
 28  9  1  0
 28 29  1  0
 29 30  1  0
 30 31  2  0
 31 32  1  0
 32 33  1  0
 33 29  2  0
  8 34  1  0
 34 35  2  0
 35  2  1  0
 35  5  1  0
M  END
> <assay_chembl_id>
CHEMBL1071319

> <assay_description>
Cytotoxicity against human LNCAP cells

> <document_journal>
Bioorg Med Chem Lett

> <molecule_chembl_id>
CHEMBL596073

> <standard_value>
830

> <IC50_uM>
0.83

> <Activity>
Yes

> <Canonical_Smiles>
Cc1n[nH]c2ccc(-c3cc(OC[C@@H](N)Cc4c[nH]c5ccccc45)cnc3-c3ccoc3)nc12

$$$$

  SciTegic03142313312D

 35 40  0  0  1  0            999 V2000
   -0.6923   -4.0811    0.0000 C   0  0
    0.3114   -2.9665    0.0000 C   0  0
    1.8032   -3.1233    0.0000 N   0  0
    2.4133   -1.7530    0.0000 N   0  0
    1.2990   -0.7500    0.0000 C   0  0
    1.2990    0.7500    0.0000 N   0  0
    0.0000    1.5000    0.0000 C   0  0
   -1.2990    0.7500    0.0000 C   0  0
   -2.5987    1.5004    0.0000 C   0  0
   -3.8967    0.7484    0.0000 C   0  0
   -5.1969    1.4963    0.0000 C   0  0
   -6.4970    0.7465    0.0000 O   0  0
   -7.7969    1.4967    0.0000 C   0  0
   -9.0970    0.7469    0.0000 C   0  0  1  0  0  0
   -9.0972   -0.7531    0.0000 N   0  0
  -10.3969    1.4971    0.0000 C   0  0
  -11.6970    0.7473    0.0000 C   0  0
  -11.8328   -0.7338    0.0000 C   0  0
  -13.2996   -1.0477    0.0000 N   0  0
  -14.0508    0.2497    0.0000 C   0  0
  -15.5184    0.5595    0.0000 C   0  0
  -15.9840    1.9854    0.0000 C   0  0
  -14.9819    3.1015    0.0000 C   0  0
  -13.5142    2.7918    0.0000 C   0  0
  -13.0487    1.3658    0.0000 C   0  0
   -5.1993    2.9963    0.0000 C   0  0
   -3.9014    3.7484    0.0000 N   0  0
   -2.6012    3.0004    0.0000 C   0  0
   -1.3027    3.7529    0.0000 C   0  0
    0.0506    3.1362    0.0000 C   0  0
    1.0508    4.2541    0.0000 C   0  0
    0.2966    5.5507    0.0000 O   0  0
   -1.1696    5.2342    0.0000 C   0  0
   -1.2990   -0.7500    0.0000 N   0  0
    0.0000   -1.5000    0.0000 C   0  0
  1  2  1  0
  2  3  2  0
  3  4  1  0
  4  5  1  0
  5  6  2  0
  6  7  1  0
  7  8  2  0
  8  9  1  0
  9 10  2  0
 10 11  1  0
 11 12  1  0
 12 13  1  0
 13 14  1  0
 14 15  1  1
 14 16  1  0
 16 17  1  0
 17 18  2  0
 18 19  1  0
 19 20  1  0
 20 21  2  0
 21 22  1  0
 22 23  2  0
 23 24  1  0
 24 25  2  0
 25 17  1  0
 25 20  1  0
 11 26  2  0
 26 27  1  0
 27 28  2  0
 28  9  1  0
 28 29  1  0
 29 30  1  0
 30 31  2  0
 31 32  1  0
 32 33  1  0
 33 29  2  0
  8 34  1  0
 34 35  2  0
 35  2  1  0
 35  5  1  0
M  END
> <assay_chembl_id>
CHEMBL1071319

> <assay_description>
Cytotoxicity against human LNCAP cells

> <document_journal>
Bioorg Med Chem Lett

> <molecule_chembl_id>
CHEMBL596290

> <standard_value>
96

> <IC50_uM>
0.096

> <Activity>
Yes

> <Canonical_Smiles>
Cc1n[nH]c2ncc(-c3cc(OC[C@@H](N)Cc4c[nH]c5ccccc45)cnc3-c3ccoc3)nc12

$$$$

  SciTegic03142313312D

 35 40  0  0  1  0            999 V2000
   -0.6923   -4.0811    0.0000 C   0  0
    0.3114   -2.9665    0.0000 C   0  0
    1.8032   -3.1233    0.0000 N   0  0
    2.4133   -1.7530    0.0000 N   0  0
    1.2990   -0.7500    0.0000 C   0  0
    1.2990    0.7500    0.0000 C   0  0
    0.0000    1.5000    0.0000 N   0  0
   -1.2990    0.7500    0.0000 C   0  0
   -2.5987    1.5004    0.0000 C   0  0
   -3.8967    0.7484    0.0000 C   0  0
   -5.1969    1.4963    0.0000 C   0  0
   -6.4970    0.7465    0.0000 O   0  0
   -7.7969    1.4967    0.0000 C   0  0
   -9.0970    0.7469    0.0000 C   0  0  1  0  0  0
   -9.0972   -0.7531    0.0000 N   0  0
  -10.3969    1.4971    0.0000 C   0  0
  -11.6970    0.7473    0.0000 C   0  0
  -11.8328   -0.7338    0.0000 C   0  0
  -13.2996   -1.0477    0.0000 N   0  0
  -14.0508    0.2497    0.0000 C   0  0
  -15.5184    0.5595    0.0000 C   0  0
  -15.9840    1.9854    0.0000 C   0  0
  -14.9819    3.1015    0.0000 C   0  0
  -13.5142    2.7918    0.0000 C   0  0
  -13.0487    1.3658    0.0000 C   0  0
   -5.1993    2.9963    0.0000 C   0  0
   -3.9014    3.7484    0.0000 N   0  0
   -2.6012    3.0004    0.0000 C   0  0
   -1.3027    3.7529    0.0000 C   0  0
    0.0506    3.1362    0.0000 C   0  0
    1.0508    4.2541    0.0000 C   0  0
    0.2966    5.5507    0.0000 O   0  0
   -1.1696    5.2342    0.0000 C   0  0
   -1.2990   -0.7500    0.0000 N   0  0
    0.0000   -1.5000    0.0000 C   0  0
  1  2  1  0
  2  3  2  0
  3  4  1  0
  4  5  1  0
  5  6  2  0
  6  7  1  0
  7  8  2  0
  8  9  1  0
  9 10  2  0
 10 11  1  0
 11 12  1  0
 12 13  1  0
 13 14  1  0
 14 15  1  1
 14 16  1  0
 16 17  1  0
 17 18  2  0
 18 19  1  0
 19 20  1  0
 20 21  2  0
 21 22  1  0
 22 23  2  0
 23 24  1  0
 24 25  2  0
 25 17  1  0
 25 20  1  0
 11 26  2  0
 26 27  1  0
 27 28  2  0
 28  9  1  0
 28 29  1  0
 29 30  1  0
 30 31  2  0
 31 32  1  0
 32 33  1  0
 33 29  2  0
  8 34  1  0
 34 35  2  0
 35  2  1  0
 35  5  1  0
M  END
> <assay_chembl_id>
CHEMBL1071319

> <assay_description>
Cytotoxicity against human LNCAP cells

> <document_journal>
Bioorg Med Chem Lett

> <molecule_chembl_id>
CHEMBL603197

> <standard_value>
540

> <IC50_uM>
0.54

> <Activity>
Yes

> <Canonical_Smiles>
Cc1n[nH]c2cnc(-c3cc(OC[C@@H](N)Cc4c[nH]c5ccccc45)cnc3-c3ccoc3)nc12

$$$$

  SciTegic03142313312D

 35 40  0  0  1  0            999 V2000
   -0.6923   -4.0811    0.0000 C   0  0
    0.3114   -2.9665    0.0000 C   0  0
    1.8032   -3.1233    0.0000 N   0  0
    2.4133   -1.7530    0.0000 N   0  0
    1.2990   -0.7500    0.0000 C   0  0
    1.2990    0.7500    0.0000 C   0  0
    0.0000    1.5000    0.0000 N   0  0
   -1.2990    0.7500    0.0000 C   0  0
   -2.5987    1.5004    0.0000 C   0  0
   -3.8967    0.7484    0.0000 C   0  0
   -5.1969    1.4963    0.0000 C   0  0
   -6.4970    0.7465    0.0000 O   0  0
   -7.7969    1.4967    0.0000 C   0  0
   -9.0970    0.7469    0.0000 C   0  0  1  0  0  0
   -9.0972   -0.7531    0.0000 N   0  0
  -10.3969    1.4971    0.0000 C   0  0
  -11.6970    0.7473    0.0000 C   0  0
  -11.8328   -0.7338    0.0000 C   0  0
  -13.2996   -1.0477    0.0000 N   0  0
  -14.0508    0.2497    0.0000 C   0  0
  -15.5184    0.5595    0.0000 C   0  0
  -15.9840    1.9854    0.0000 C   0  0
  -14.9819    3.1015    0.0000 C   0  0
  -13.5142    2.7918    0.0000 C   0  0
  -13.0487    1.3658    0.0000 C   0  0
   -5.1993    2.9963    0.0000 C   0  0
   -3.9014    3.7484    0.0000 N   0  0
   -2.6012    3.0004    0.0000 C   0  0
   -1.3027    3.7529    0.0000 C   0  0
    0.0506    3.1362    0.0000 C   0  0
    1.0508    4.2541    0.0000 C   0  0
    0.2966    5.5507    0.0000 O   0  0
   -1.1696    5.2342    0.0000 C   0  0
   -1.2990   -0.7500    0.0000 C   0  0
    0.0000   -1.5000    0.0000 C   0  0
  1  2  1  0
  2  3  2  0
  3  4  1  0
  4  5  1  0
  5  6  2  0
  6  7  1  0
  7  8  2  0
  8  9  1  0
  9 10  2  0
 10 11  1  0
 11 12  1  0
 12 13  1  0
 13 14  1  0
 14 15  1  1
 14 16  1  0
 16 17  1  0
 17 18  2  0
 18 19  1  0
 19 20  1  0
 20 21  2  0
 21 22  1  0
 22 23  2  0
 23 24  1  0
 24 25  2  0
 25 17  1  0
 25 20  1  0
 11 26  2  0
 26 27  1  0
 27 28  2  0
 28  9  1  0
 28 29  1  0
 29 30  1  0
 30 31  2  0
 31 32  1  0
 32 33  1  0
 33 29  2  0
  8 34  1  0
 34 35  2  0
 35  2  1  0
 35  5  1  0
M  END
> <assay_chembl_id>
CHEMBL1071319

> <assay_description>
Cytotoxicity against human LNCAP cells

> <document_journal>
Bioorg Med Chem Lett

> <molecule_chembl_id>
CHEMBL594933

> <standard_value>
230

> <IC50_uM>
0.23

> <Activity>
Yes

> <Canonical_Smiles>
Cc1n[nH]c2cnc(-c3cc(OC[C@@H](N)Cc4c[nH]c5ccccc45)cnc3-c3ccoc3)cc12

$$$$

  SciTegic03142313312D

 38 43  0  0  0  0            999 V2000
    7.7795   -7.5156    0.0000 C   0  0
    7.7840   -6.0157    0.0000 N   0  0
    6.4870   -5.2605    0.0000 C   0  0
    5.1855   -6.0062    0.0000 O   0  0
    6.4915   -3.7597    0.0000 N   0  0
    5.1945   -3.0045    0.0000 C   0  0
    5.1969   -1.5045    0.0000 C   0  0
    3.8991   -0.7525    0.0000 C   0  0
    2.5987   -1.5004    0.0000 C   0  0
    1.2990   -0.7500    0.0000 C   0  0
    1.2990    0.7500    0.0000 N   0  0
    0.0000    1.5000    0.0000 C   0  0
    0.0000    3.0008    0.0000 N   0  0
    0.3976    4.0929    0.0000 C   0  0
    1.9160    5.0370    0.0000 C   0  0  3  0  0  0
    3.4405    4.4165    0.0000 C   0  0
    2.0983    4.3984    0.0000 C   0  0
    0.8565    5.1517    0.0000 C   0  0  3  0  0  0
   -0.5573    4.3156    0.0000 C   0  0
    1.3526    6.4269    0.0000 O   0  0
   -1.2990    0.7500    0.0000 C   0  0
   -2.7248    1.2135    0.0000 C   0  0
   -3.6065    0.0000    0.0000 N   0  0
   -2.7248   -1.2135    0.0000 N   0  0
   -3.1884   -2.6409    0.0000 C   0  0
   -4.6234   -3.0602    0.0000 C   0  0
   -4.9781   -4.5176    0.0000 C   0  0
   -3.8933   -5.5536    0.0000 N   0  0
   -4.2452   -7.0125    0.0000 C   0  0
   -5.6840   -7.4366    0.0000 O   0  0
   -3.1582   -8.0475    0.0000 O   0  0
   -3.5099   -9.5057    0.0000 C   0  0
   -2.4537   -5.1320    0.0000 C   0  0
   -2.0990   -3.6745    0.0000 C   0  0
   -1.2990   -0.7500    0.0000 C   0  0
    0.0000   -1.5000    0.0000 N   0  0
    2.5965   -3.0004    0.0000 C   0  0
    3.8943   -3.7525    0.0000 C   0  0
  1  2  1  0
  2  3  1  0
  3  4  2  0
  3  5  1  0
  5  6  1  0
  6  7  2  0
  7  8  1  0
  8  9  2  0
  9 10  1  0
 10 11  2  0
 11 12  1  0
 12 13  1  0
 13 14  1  0
 15 14  1  4
 15 16  1  0
 16 17  1  0
 18 17  1  4
 18 19  1  0
 19 13  1  0
 18 20  1  0
 20 15  1  0
 12 21  2  0
 21 22  1  0
 22 23  2  0
 23 24  1  0
 24 25  1  0
 25 26  1  0
 26 27  1  0
 27 28  1  0
 28 29  1  0
 29 30  2  0
 29 31  1  0
 31 32  1  0
 28 33  1  0
 33 34  1  0
 34 25  1  0
 24 35  1  0
 35 21  1  0
 35 36  2  0
 36 10  1  0
  9 37  1  0
 37 38  2  0
 38  6  1  0
M  END
> <assay_chembl_id>
CHEMBL1068275

> <assay_description>
Cytotoxicity against human LNCAP cells

> <document_journal>
Bioorg Med Chem Lett

> <molecule_chembl_id>
CHEMBL568259

> <standard_value>
26

> <IC50_uM>
0.026

> <Activity>
Yes

> <Canonical_Smiles>
CNC(=O)Nc1ccc(-c2nc(N3CC4CCC(C3)O4)c3cnn(C4CCN(C(=O)OC)CC4)c3n2)cc1

$$$$

  SciTegic03142313312D

 40 45  0  0  0  0            999 V2000
    7.7795   -7.5156    0.0000 C   0  0
    7.7840   -6.0157    0.0000 N   0  0
    6.4870   -5.2605    0.0000 C   0  0
    5.1855   -6.0062    0.0000 O   0  0
    6.4915   -3.7597    0.0000 N   0  0
    5.1945   -3.0045    0.0000 C   0  0
    5.1969   -1.5045    0.0000 C   0  0
    3.8991   -0.7525    0.0000 C   0  0
    2.5987   -1.5004    0.0000 C   0  0
    1.2990   -0.7500    0.0000 C   0  0
    1.2990    0.7500    0.0000 N   0  0
    0.0000    1.5000    0.0000 C   0  0
    0.0000    3.0008    0.0000 N   0  0
    0.3976    4.0929    0.0000 C   0  0
    1.9160    5.0370    0.0000 C   0  0  3  0  0  0
    3.4405    4.4165    0.0000 C   0  0
    2.0983    4.3984    0.0000 C   0  0
    0.8565    5.1517    0.0000 C   0  0  3  0  0  0
   -0.5573    4.3156    0.0000 C   0  0
    1.3526    6.4269    0.0000 O   0  0
   -1.2990    0.7500    0.0000 C   0  0
   -2.7248    1.2135    0.0000 C   0  0
   -3.6065    0.0000    0.0000 N   0  0
   -2.7248   -1.2135    0.0000 N   0  0
   -3.1884   -2.6409    0.0000 C   0  0
   -4.6234   -3.0602    0.0000 C   0  0
   -4.9781   -4.5176    0.0000 C   0  0
   -3.8933   -5.5536    0.0000 N   0  0
   -4.2452   -7.0125    0.0000 C   0  0
   -5.6840   -7.4366    0.0000 O   0  0
   -3.1582   -8.0475    0.0000 O   0  0
   -3.5101   -9.5065    0.0000 C   0  0
   -2.4238  -10.5408    0.0000 C   0  0
   -4.9489   -9.9305    0.0000 C   0  0
   -2.4537   -5.1320    0.0000 C   0  0
   -2.0990   -3.6745    0.0000 C   0  0
   -1.2990   -0.7500    0.0000 C   0  0
    0.0000   -1.5000    0.0000 N   0  0
    2.5965   -3.0004    0.0000 C   0  0
    3.8943   -3.7525    0.0000 C   0  0
  1  2  1  0
  2  3  1  0
  3  4  2  0
  3  5  1  0
  5  6  1  0
  6  7  2  0
  7  8  1  0
  8  9  2  0
  9 10  1  0
 10 11  2  0
 11 12  1  0
 12 13  1  0
 13 14  1  0
 15 14  1  4
 15 16  1  0
 16 17  1  0
 18 17  1  4
 18 19  1  0
 19 13  1  0
 18 20  1  0
 20 15  1  0
 12 21  2  0
 21 22  1  0
 22 23  2  0
 23 24  1  0
 24 25  1  0
 25 26  1  0
 26 27  1  0
 27 28  1  0
 28 29  1  0
 29 30  2  0
 29 31  1  0
 31 32  1  0
 32 33  1  0
 32 34  1  0
 28 35  1  0
 35 36  1  0
 36 25  1  0
 24 37  1  0
 37 21  1  0
 37 38  2  0
 38 10  1  0
  9 39  1  0
 39 40  2  0
 40  6  1  0
M  END
> <assay_chembl_id>
CHEMBL1068275

> <assay_description>
Cytotoxicity against human LNCAP cells

> <document_journal>
Bioorg Med Chem Lett

> <molecule_chembl_id>
CHEMBL606423

> <standard_value>
6

> <IC50_uM>
0.006

> <Activity>
Yes

> <Canonical_Smiles>
CNC(=O)Nc1ccc(-c2nc(N3CC4CCC(C3)O4)c3cnn(C4CCN(C(=O)OC(C)C)CC4)c3n2)cc1

$$$$

  SciTegic03142313312D

 41 46  0  0  0  0            999 V2000
    7.7795   -7.5156    0.0000 C   0  0
    7.7840   -6.0157    0.0000 N   0  0
    6.4870   -5.2605    0.0000 C   0  0
    5.1855   -6.0062    0.0000 O   0  0
    6.4915   -3.7597    0.0000 N   0  0
    5.1945   -3.0045    0.0000 C   0  0
    5.1969   -1.5045    0.0000 C   0  0
    3.8991   -0.7525    0.0000 C   0  0
    2.5987   -1.5004    0.0000 C   0  0
    1.2990   -0.7500    0.0000 C   0  0
    1.2990    0.7500    0.0000 N   0  0
    0.0000    1.5000    0.0000 C   0  0
    0.0000    3.0008    0.0000 N   0  0
    0.3976    4.0929    0.0000 C   0  0
    1.9160    5.0370    0.0000 C   0  0  3  0  0  0
    3.4405    4.4165    0.0000 C   0  0
    2.0983    4.3984    0.0000 C   0  0
    0.8565    5.1517    0.0000 C   0  0  3  0  0  0
   -0.5573    4.3156    0.0000 C   0  0
    1.3526    6.4269    0.0000 O   0  0
   -1.2990    0.7500    0.0000 C   0  0
   -2.7248    1.2135    0.0000 C   0  0
   -3.6065    0.0000    0.0000 N   0  0
   -2.7248   -1.2135    0.0000 N   0  0
   -3.1884   -2.6409    0.0000 C   0  0
   -4.6234   -3.0602    0.0000 C   0  0
   -4.9781   -4.5176    0.0000 C   0  0
   -3.8933   -5.5536    0.0000 N   0  0
   -4.2452   -7.0125    0.0000 C   0  0
   -5.6840   -7.4366    0.0000 O   0  0
   -3.1582   -8.0475    0.0000 O   0  0
   -3.5101   -9.5065    0.0000 C   0  0
   -2.4238  -10.5408    0.0000 C   0  0
   -3.8625  -10.9645    0.0000 C   0  0
   -4.9489   -9.9305    0.0000 C   0  0
   -2.4537   -5.1320    0.0000 C   0  0
   -2.0990   -3.6745    0.0000 C   0  0
   -1.2990   -0.7500    0.0000 C   0  0
    0.0000   -1.5000    0.0000 N   0  0
    2.5965   -3.0004    0.0000 C   0  0
    3.8943   -3.7525    0.0000 C   0  0
  1  2  1  0
  2  3  1  0
  3  4  2  0
  3  5  1  0
  5  6  1  0
  6  7  2  0
  7  8  1  0
  8  9  2  0
  9 10  1  0
 10 11  2  0
 11 12  1  0
 12 13  1  0
 13 14  1  0
 15 14  1  4
 15 16  1  0
 16 17  1  0
 18 17  1  4
 18 19  1  0
 19 13  1  0
 18 20  1  0
 20 15  1  0
 12 21  2  0
 21 22  1  0
 22 23  2  0
 23 24  1  0
 24 25  1  0
 25 26  1  0
 26 27  1  0
 27 28  1  0
 28 29  1  0
 29 30  2  0
 29 31  1  0
 31 32  1  0
 32 33  1  0
 32 34  1  0
 32 35  1  0
 28 36  1  0
 36 37  1  0
 37 25  1  0
 24 38  1  0
 38 21  1  0
 38 39  2  0
 39 10  1  0
  9 40  1  0
 40 41  2  0
 41  6  1  0
M  END
> <assay_chembl_id>
CHEMBL1068275

> <assay_description>
Cytotoxicity against human LNCAP cells

> <document_journal>
Bioorg Med Chem Lett

> <molecule_chembl_id>
CHEMBL600084

> <standard_value>
27

> <IC50_uM>
0.027

> <Activity>
Yes

> <Canonical_Smiles>
CNC(=O)Nc1ccc(-c2nc(N3CC4CCC(C3)O4)c3cnn(C4CCN(C(=O)OC(C)(C)C)CC4)c3n2)cc1

$$$$

  SciTegic03142313312D

 29 33  0  0  0  0            999 V2000
    7.7795   -7.5156    0.0000 C   0  0
    7.7840   -6.0157    0.0000 N   0  0
    6.4870   -5.2605    0.0000 C   0  0
    5.1855   -6.0062    0.0000 O   0  0
    6.4915   -3.7597    0.0000 N   0  0
    5.1945   -3.0045    0.0000 C   0  0
    5.1969   -1.5045    0.0000 C   0  0
    3.8991   -0.7525    0.0000 C   0  0
    2.5987   -1.5004    0.0000 C   0  0
    1.2990   -0.7500    0.0000 C   0  0
    1.2990    0.7500    0.0000 N   0  0
    0.0000    1.5000    0.0000 C   0  0
    0.0000    3.0008    0.0000 N   0  0
    0.3976    4.0929    0.0000 C   0  0
    1.9160    5.0370    0.0000 C   0  0  3  0  0  0
    3.4405    4.4165    0.0000 C   0  0
    2.0983    4.3984    0.0000 C   0  0
    0.8565    5.1517    0.0000 C   0  0  3  0  0  0
   -0.5573    4.3156    0.0000 C   0  0
    1.3526    6.4269    0.0000 O   0  0
   -1.2990    0.7500    0.0000 C   0  0
   -2.7248    1.2135    0.0000 C   0  0
   -3.6065    0.0000    0.0000 N   0  0
   -2.7248   -1.2135    0.0000 N   0  0
   -3.1882   -2.6402    0.0000 C   0  0
   -1.2990   -0.7500    0.0000 C   0  0
    0.0000   -1.5000    0.0000 N   0  0
    2.5965   -3.0004    0.0000 C   0  0
    3.8943   -3.7525    0.0000 C   0  0
  1  2  1  0
  2  3  1  0
  3  4  2  0
  3  5  1  0
  5  6  1  0
  6  7  2  0
  7  8  1  0
  8  9  2  0
  9 10  1  0
 10 11  2  0
 11 12  1  0
 12 13  1  0
 13 14  1  0
 15 14  1  4
 15 16  1  0
 16 17  1  0
 18 17  1  4
 18 19  1  0
 19 13  1  0
 18 20  1  0
 20 15  1  0
 12 21  2  0
 21 22  1  0
 22 23  2  0
 23 24  1  0
 24 25  1  0
 24 26  1  0
 26 21  1  0
 26 27  2  0
 27 10  1  0
  9 28  1  0
 28 29  2  0
 29  6  1  0
M  END
> <assay_chembl_id>
CHEMBL1068275

> <assay_description>
Cytotoxicity against human LNCAP cells

> <document_journal>
Bioorg Med Chem Lett

> <molecule_chembl_id>
CHEMBL601864

> <standard_value>
170

> <IC50_uM>
0.17

> <Activity>
Yes

> <Canonical_Smiles>
CNC(=O)Nc1ccc(-c2nc(N3CC4CCC(C3)O4)c3cnn(C)c3n2)cc1

$$$$

  SciTegic03142313312D

 30 34  0  0  0  0            999 V2000
   -0.2237   -5.5078    0.0000 C   0  0
   -0.6890   -4.0818    0.0000 C   0  0
    0.3114   -2.9665    0.0000 N   0  0
    1.8032   -3.1233    0.0000 N   0  0
    2.4133   -1.7530    0.0000 C   0  0
    1.2990   -0.7500    0.0000 C   0  0
    1.2990    0.7500    0.0000 C   0  0
    2.5987    1.5004    0.0000 N   0  0
    3.7433    1.7022    0.0000 C   0  0
    5.3202    0.8592    0.0000 C   0  0  3  0  0  0
    5.5451   -0.7713    0.0000 C   0  0
    4.8582    0.3820    0.0000 C   0  0
    4.8897    1.8341    0.0000 C   0  0  3  0  0  0
    3.4588    2.6405    0.0000 C   0  0
    6.2422    2.0421    0.0000 O   0  0
    0.0000    1.5000    0.0000 N   0  0
   -1.2990    0.7500    0.0000 C   0  0
   -2.5987    1.5004    0.0000 C   0  0
   -2.6012    3.0004    0.0000 C   0  0
   -3.9015    3.7484    0.0000 C   0  0
   -5.1993    2.9963    0.0000 C   0  0
   -6.5018    3.7420    0.0000 N   0  0
   -7.7993    2.9876    0.0000 C   0  0
   -7.7943    1.4876    0.0000 O   0  0
   -9.1017    3.7333    0.0000 N   0  0
  -10.3985    2.9794    0.0000 C   0  0
   -5.1969    1.4963    0.0000 C   0  0
   -3.8967    0.7484    0.0000 C   0  0
   -1.2990   -0.7500    0.0000 N   0  0
    0.0000   -1.5000    0.0000 C   0  0
  1  2  1  0
  2  3  1  0
  3  4  1  0
  4  5  2  0
  5  6  1  0
  6  7  2  0
  7  8  1  0
  8  9  1  0
 10  9  1  4
 10 11  1  0
 11 12  1  0
 13 12  1  4
 13 14  1  0
 14  8  1  0
 13 15  1  0
 15 10  1  0
  7 16  1  0
 16 17  2  0
 17 18  1  0
 18 19  2  0
 19 20  1  0
 20 21  2  0
 21 22  1  0
 22 23  1  0
 23 24  2  0
 23 25  1  0
 25 26  1  0
 21 27  1  0
 27 28  2  0
 28 18  1  0
 17 29  1  0
 29 30  2  0
 30  6  1  0
 30  3  1  0
M  END
> <assay_chembl_id>
CHEMBL1068275

> <assay_description>
Cytotoxicity against human LNCAP cells

> <document_journal>
Bioorg Med Chem Lett

> <molecule_chembl_id>
CHEMBL600811

> <standard_value>
70

> <IC50_uM>
0.07

> <Activity>
Yes

> <Canonical_Smiles>
CCn1ncc2c(N3CC4CCC(C3)O4)nc(-c3ccc(NC(=O)NC)cc3)nc21

$$$$

  SciTegic03142313312D

 31 35  0  0  0  0            999 V2000
    7.7795   -7.5156    0.0000 C   0  0
    7.7840   -6.0157    0.0000 N   0  0
    6.4870   -5.2605    0.0000 C   0  0
    5.1855   -6.0062    0.0000 O   0  0
    6.4915   -3.7597    0.0000 N   0  0
    5.1945   -3.0045    0.0000 C   0  0
    5.1969   -1.5045    0.0000 C   0  0
    3.8991   -0.7525    0.0000 C   0  0
    2.5987   -1.5004    0.0000 C   0  0
    1.2990   -0.7500    0.0000 C   0  0
    1.2990    0.7500    0.0000 N   0  0
    0.0000    1.5000    0.0000 C   0  0
    0.0000    3.0008    0.0000 N   0  0
    0.3976    4.0929    0.0000 C   0  0
    1.9160    5.0370    0.0000 C   0  0  3  0  0  0
    3.4405    4.4165    0.0000 C   0  0
    2.0983    4.3984    0.0000 C   0  0
    0.8565    5.1517    0.0000 C   0  0  3  0  0  0
   -0.5573    4.3156    0.0000 C   0  0
    1.3526    6.4269    0.0000 O   0  0
   -1.2990    0.7500    0.0000 C   0  0
   -2.7248    1.2135    0.0000 C   0  0
   -3.6065    0.0000    0.0000 N   0  0
   -2.7248   -1.2135    0.0000 N   0  0
   -3.1904   -2.6376    0.0000 C   0  0
   -4.6580   -2.9476    0.0000 C   0  0
   -2.1885   -3.7539    0.0000 C   0  0
   -1.2990   -0.7500    0.0000 C   0  0
    0.0000   -1.5000    0.0000 N   0  0
    2.5965   -3.0004    0.0000 C   0  0
    3.8943   -3.7525    0.0000 C   0  0
  1  2  1  0
  2  3  1  0
  3  4  2  0
  3  5  1  0
  5  6  1  0
  6  7  2  0
  7  8  1  0
  8  9  2  0
  9 10  1  0
 10 11  2  0
 11 12  1  0
 12 13  1  0
 13 14  1  0
 15 14  1  4
 15 16  1  0
 16 17  1  0
 18 17  1  4
 18 19  1  0
 19 13  1  0
 18 20  1  0
 20 15  1  0
 12 21  2  0
 21 22  1  0
 22 23  2  0
 23 24  1  0
 24 25  1  0
 25 26  1  0
 25 27  1  0
 24 28  1  0
 28 21  1  0
 28 29  2  0
 29 10  1  0
  9 30  1  0
 30 31  2  0
 31  6  1  0
M  END
> <assay_chembl_id>
CHEMBL1068275

> <assay_description>
Cytotoxicity against human LNCAP cells

> <document_journal>
Bioorg Med Chem Lett

> <molecule_chembl_id>
CHEMBL604123

> <standard_value>
5

> <IC50_uM>
0.005

> <Activity>
Yes

> <Canonical_Smiles>
CNC(=O)Nc1ccc(-c2nc(N3CC4CCC(C3)O4)c3cnn(C(C)C)c3n2)cc1

$$$$

  SciTegic03142313312D

 33 37  0  0  0  0            999 V2000
    7.7795   -7.5156    0.0000 C   0  0
    7.7840   -6.0157    0.0000 N   0  0
    6.4870   -5.2605    0.0000 C   0  0
    5.1855   -6.0062    0.0000 O   0  0
    6.4915   -3.7597    0.0000 N   0  0
    5.1945   -3.0045    0.0000 C   0  0
    5.1969   -1.5045    0.0000 C   0  0
    3.8991   -0.7525    0.0000 C   0  0
    2.5987   -1.5004    0.0000 C   0  0
    1.2990   -0.7500    0.0000 C   0  0
    1.2990    0.7500    0.0000 N   0  0
    0.0000    1.5000    0.0000 C   0  0
    0.0000    3.0008    0.0000 N   0  0
    0.3976    4.0929    0.0000 C   0  0
    1.9160    5.0370    0.0000 C   0  0  3  0  0  0
    3.4405    4.4165    0.0000 C   0  0
    2.0983    4.3984    0.0000 C   0  0
    0.8565    5.1517    0.0000 C   0  0  3  0  0  0
   -0.5573    4.3156    0.0000 C   0  0
    1.3526    6.4269    0.0000 O   0  0
   -1.2990    0.7500    0.0000 C   0  0
   -2.7248    1.2135    0.0000 C   0  0
   -3.6065    0.0000    0.0000 N   0  0
   -2.7248   -1.2135    0.0000 N   0  0
   -3.1904   -2.6376    0.0000 C   0  0
   -4.6588   -2.9478    0.0000 C   0  0
   -5.1250   -4.3735    0.0000 F   0  0
   -5.6608   -1.8315    0.0000 F   0  0
   -6.1266   -3.2572    0.0000 F   0  0
   -1.2990   -0.7500    0.0000 C   0  0
    0.0000   -1.5000    0.0000 N   0  0
    2.5965   -3.0004    0.0000 C   0  0
    3.8943   -3.7525    0.0000 C   0  0
  1  2  1  0
  2  3  1  0
  3  4  2  0
  3  5  1  0
  5  6  1  0
  6  7  2  0
  7  8  1  0
  8  9  2  0
  9 10  1  0
 10 11  2  0
 11 12  1  0
 12 13  1  0
 13 14  1  0
 15 14  1  4
 15 16  1  0
 16 17  1  0
 18 17  1  4
 18 19  1  0
 19 13  1  0
 18 20  1  0
 20 15  1  0
 12 21  2  0
 21 22  1  0
 22 23  2  0
 23 24  1  0
 24 25  1  0
 25 26  1  0
 26 27  1  0
 26 28  1  0
 26 29  1  0
 24 30  1  0
 30 21  1  0
 30 31  2  0
 31 10  1  0
  9 32  1  0
 32 33  2  0
 33  6  1  0
M  END
> <assay_chembl_id>
CHEMBL1068275

> <assay_description>
Cytotoxicity against human LNCAP cells

> <document_journal>
Bioorg Med Chem Lett

> <molecule_chembl_id>
CHEMBL572944

> <standard_value>
38

> <IC50_uM>
0.038

> <Activity>
Yes

> <Canonical_Smiles>
CNC(=O)Nc1ccc(-c2nc(N3CC4CCC(C3)O4)c3cnn(CC(F)(F)F)c3n2)cc1

$$$$

  SciTegic03142313312D

 31 35  0  0  0  0            999 V2000
    7.7795   -7.5156    0.0000 C   0  0
    7.7840   -6.0157    0.0000 N   0  0
    6.4870   -5.2605    0.0000 C   0  0
    5.1855   -6.0062    0.0000 O   0  0
    6.4915   -3.7597    0.0000 N   0  0
    5.1945   -3.0045    0.0000 C   0  0
    5.1969   -1.5045    0.0000 C   0  0
    3.8991   -0.7525    0.0000 C   0  0
    2.5987   -1.5004    0.0000 C   0  0
    1.2990   -0.7500    0.0000 C   0  0
    1.2990    0.7500    0.0000 N   0  0
    0.0000    1.5000    0.0000 C   0  0
    0.0000    3.0008    0.0000 N   0  0
    0.3976    4.0929    0.0000 C   0  0
    1.9160    5.0370    0.0000 C   0  0  3  0  0  0
    3.4405    4.4165    0.0000 C   0  0
    2.0983    4.3984    0.0000 C   0  0
    0.8565    5.1517    0.0000 C   0  0  3  0  0  0
   -0.5573    4.3156    0.0000 C   0  0
    1.3526    6.4269    0.0000 O   0  0
   -1.2990    0.7500    0.0000 C   0  0
   -2.7248    1.2135    0.0000 C   0  0
   -3.6065    0.0000    0.0000 N   0  0
   -2.7248   -1.2135    0.0000 N   0  0
   -3.1904   -2.6376    0.0000 C   0  0
   -4.6588   -2.9478    0.0000 C   0  0
   -5.1250   -4.3735    0.0000 O   0  0
   -1.2990   -0.7500    0.0000 C   0  0
    0.0000   -1.5000    0.0000 N   0  0
    2.5965   -3.0004    0.0000 C   0  0
    3.8943   -3.7525    0.0000 C   0  0
  1  2  1  0
  2  3  1  0
  3  4  2  0
  3  5  1  0
  5  6  1  0
  6  7  2  0
  7  8  1  0
  8  9  2  0
  9 10  1  0
 10 11  2  0
 11 12  1  0
 12 13  1  0
 13 14  1  0
 15 14  1  4
 15 16  1  0
 16 17  1  0
 18 17  1  4
 18 19  1  0
 19 13  1  0
 18 20  1  0
 20 15  1  0
 12 21  2  0
 21 22  1  0
 22 23  2  0
 23 24  1  0
 24 25  1  0
 25 26  1  0
 26 27  1  0
 24 28  1  0
 28 21  1  0
 28 29  2  0
 29 10  1  0
  9 30  1  0
 30 31  2  0
 31  6  1  0
M  END
> <assay_chembl_id>
CHEMBL1068275

> <assay_description>
Cytotoxicity against human LNCAP cells

> <document_journal>
Bioorg Med Chem Lett

> <molecule_chembl_id>
CHEMBL602682

> <standard_value>
650

> <IC50_uM>
0.65

> <Activity>
Yes

> <Canonical_Smiles>
CNC(=O)Nc1ccc(-c2nc(N3CC4CCC(C3)O4)c3cnn(CCO)c3n2)cc1

$$$$

  SciTegic03142313312D

 33 37  0  0  0  0            999 V2000
    7.7795   -7.5156    0.0000 C   0  0
    7.7840   -6.0157    0.0000 N   0  0
    6.4870   -5.2605    0.0000 C   0  0
    5.1855   -6.0062    0.0000 O   0  0
    6.4915   -3.7597    0.0000 N   0  0
    5.1945   -3.0045    0.0000 C   0  0
    5.1969   -1.5045    0.0000 C   0  0
    3.8991   -0.7525    0.0000 C   0  0
    2.5987   -1.5004    0.0000 C   0  0
    1.2990   -0.7500    0.0000 C   0  0
    1.2990    0.7500    0.0000 N   0  0
    0.0000    1.5000    0.0000 C   0  0
    0.0000    3.0008    0.0000 N   0  0
    0.3976    4.0929    0.0000 C   0  0
    1.9160    5.0370    0.0000 C   0  0  3  0  0  0
    3.4405    4.4165    0.0000 C   0  0
    2.0983    4.3984    0.0000 C   0  0
    0.8565    5.1517    0.0000 C   0  0  3  0  0  0
   -0.5573    4.3156    0.0000 C   0  0
    1.3526    6.4269    0.0000 O   0  0
   -1.2990    0.7500    0.0000 C   0  0
   -2.7248    1.2135    0.0000 C   0  0
   -3.6065    0.0000    0.0000 N   0  0
   -2.7248   -1.2135    0.0000 N   0  0
   -3.1904   -2.6376    0.0000 C   0  0
   -4.6588   -2.9478    0.0000 C   0  0
   -5.1253   -4.3743    0.0000 N   0  0
   -6.5929   -4.6844    0.0000 C   0  0
   -4.1233   -5.4906    0.0000 C   0  0
   -1.2990   -0.7500    0.0000 C   0  0
    0.0000   -1.5000    0.0000 N   0  0
    2.5965   -3.0004    0.0000 C   0  0
    3.8943   -3.7525    0.0000 C   0  0
  1  2  1  0
  2  3  1  0
  3  4  2  0
  3  5  1  0
  5  6  1  0
  6  7  2  0
  7  8  1  0
  8  9  2  0
  9 10  1  0
 10 11  2  0
 11 12  1  0
 12 13  1  0
 13 14  1  0
 15 14  1  4
 15 16  1  0
 16 17  1  0
 18 17  1  4
 18 19  1  0
 19 13  1  0
 18 20  1  0
 20 15  1  0
 12 21  2  0
 21 22  1  0
 22 23  2  0
 23 24  1  0
 24 25  1  0
 25 26  1  0
 26 27  1  0
 27 28  1  0
 27 29  1  0
 24 30  1  0
 30 21  1  0
 30 31  2  0
 31 10  1  0
  9 32  1  0
 32 33  2  0
 33  6  1  0
M  END
> <assay_chembl_id>
CHEMBL1068275

> <assay_description>
Cytotoxicity against human LNCAP cells

> <document_journal>
Bioorg Med Chem Lett

> <molecule_chembl_id>
CHEMBL602884

> <standard_value>
400

> <IC50_uM>
0.4

> <Activity>
Yes

> <Canonical_Smiles>
CNC(=O)Nc1ccc(-c2nc(N3CC4CCC(C3)O4)c3cnn(CCN(C)C)c3n2)cc1

$$$$

  SciTegic03142313312D

 35 40  0  0  0  0            999 V2000
    7.7795   -7.5156    0.0000 C   0  0
    7.7840   -6.0157    0.0000 N   0  0
    6.4870   -5.2605    0.0000 C   0  0
    5.1855   -6.0062    0.0000 O   0  0
    6.4915   -3.7597    0.0000 N   0  0
    5.1945   -3.0045    0.0000 C   0  0
    5.1969   -1.5045    0.0000 C   0  0
    3.8991   -0.7525    0.0000 C   0  0
    2.5987   -1.5004    0.0000 C   0  0
    1.2990   -0.7500    0.0000 C   0  0
    1.2990    0.7500    0.0000 N   0  0
    0.0000    1.5000    0.0000 C   0  0
    0.0000    3.0008    0.0000 N   0  0
    0.3976    4.0929    0.0000 C   0  0
    1.9160    5.0370    0.0000 C   0  0  3  0  0  0
    3.4405    4.4165    0.0000 C   0  0
    2.0983    4.3984    0.0000 C   0  0
    0.8565    5.1517    0.0000 C   0  0  3  0  0  0
   -0.5573    4.3156    0.0000 C   0  0
    1.3526    6.4269    0.0000 O   0  0
   -1.2990    0.7500    0.0000 C   0  0
   -2.7248    1.2135    0.0000 C   0  0
   -3.6065    0.0000    0.0000 N   0  0
   -2.7248   -1.2135    0.0000 N   0  0
   -3.1884   -2.6409    0.0000 C   0  0
   -4.6234   -3.0602    0.0000 C   0  0
   -4.9781   -4.5176    0.0000 C   0  0
   -3.8933   -5.5536    0.0000 C   0  0
   -4.2480   -7.0110    0.0000 O   0  0
   -2.4537   -5.1320    0.0000 C   0  0
   -2.0990   -3.6745    0.0000 C   0  0
   -1.2990   -0.7500    0.0000 C   0  0
    0.0000   -1.5000    0.0000 N   0  0
    2.5965   -3.0004    0.0000 C   0  0
    3.8943   -3.7525    0.0000 C   0  0
  1  2  1  0
  2  3  1  0
  3  4  2  0
  3  5  1  0
  5  6  1  0
  6  7  2  0
  7  8  1  0
  8  9  2  0
  9 10  1  0
 10 11  2  0
 11 12  1  0
 12 13  1  0
 13 14  1  0
 15 14  1  4
 15 16  1  0
 16 17  1  0
 18 17  1  4
 18 19  1  0
 19 13  1  0
 18 20  1  0
 20 15  1  0
 12 21  2  0
 21 22  1  0
 22 23  2  0
 23 24  1  0
 24 25  1  0
 25 26  1  0
 26 27  1  0
 27 28  1  0
 28 29  2  0
 28 30  1  0
 30 31  1  0
 31 25  1  0
 24 32  1  0
 32 21  1  0
 32 33  2  0
 33 10  1  0
  9 34  1  0
 34 35  2  0
 35  6  1  0
M  END
> <assay_chembl_id>
CHEMBL1068275

> <assay_description>
Cytotoxicity against human LNCAP cells

> <document_journal>
Bioorg Med Chem Lett

> <molecule_chembl_id>
CHEMBL603498

> <standard_value>
32

> <IC50_uM>
0.032

> <Activity>
Yes

> <Canonical_Smiles>
CNC(=O)Nc1ccc(-c2nc(N3CC4CCC(C3)O4)c3cnn(C4CCC(=O)CC4)c3n2)cc1

$$$$

  SciTegic03142313312D

 35 40  0  0  1  0            999 V2000
    7.7795   -7.5156    0.0000 C   0  0
    7.7840   -6.0157    0.0000 N   0  0
    6.4870   -5.2605    0.0000 C   0  0
    5.1855   -6.0062    0.0000 O   0  0
    6.4915   -3.7597    0.0000 N   0  0
    5.1945   -3.0045    0.0000 C   0  0
    5.1969   -1.5045    0.0000 C   0  0
    3.8991   -0.7525    0.0000 C   0  0
    2.5987   -1.5004    0.0000 C   0  0
    1.2990   -0.7500    0.0000 C   0  0
    1.2990    0.7500    0.0000 N   0  0
    0.0000    1.5000    0.0000 C   0  0
    0.0000    3.0008    0.0000 N   0  0
    0.3976    4.0929    0.0000 C   0  0
    1.9160    5.0370    0.0000 C   0  0  3  0  0  0
    3.4405    4.4165    0.0000 C   0  0
    2.0983    4.3984    0.0000 C   0  0
    0.8565    5.1517    0.0000 C   0  0  3  0  0  0
   -0.5573    4.3156    0.0000 C   0  0
    1.3526    6.4269    0.0000 O   0  0
   -1.2990    0.7500    0.0000 C   0  0
   -2.7248    1.2135    0.0000 C   0  0
   -3.6065    0.0000    0.0000 N   0  0
   -2.7248   -1.2135    0.0000 N   0  0
   -3.1884   -2.6409    0.0000 C   0  0  1  0  0  0
   -4.6234   -3.0602    0.0000 C   0  0
   -4.9781   -4.5176    0.0000 C   0  0
   -3.8933   -5.5536    0.0000 C   0  0  2  0  0  0
   -4.2480   -7.0110    0.0000 O   0  0
   -2.4537   -5.1320    0.0000 C   0  0
   -2.0990   -3.6745    0.0000 C   0  0
   -1.2990   -0.7500    0.0000 C   0  0
    0.0000   -1.5000    0.0000 N   0  0
    2.5965   -3.0004    0.0000 C   0  0
    3.8943   -3.7525    0.0000 C   0  0
  1  2  1  0
  2  3  1  0
  3  4  2  0
  3  5  1  0
  5  6  1  0
  6  7  2  0
  7  8  1  0
  8  9  2  0
  9 10  1  0
 10 11  2  0
 11 12  1  0
 12 13  1  0
 13 14  1  0
 15 14  1  4
 15 16  1  0
 16 17  1  0
 18 17  1  4
 18 19  1  0
 19 13  1  0
 18 20  1  0
 20 15  1  0
 12 21  2  0
 21 22  1  0
 22 23  2  0
 23 24  1  0
 25 24  1  6
 25 26  1  0
 26 27  1  0
 27 28  1  0
 28 29  1  1
 28 30  1  0
 30 31  1  0
 31 25  1  0
 24 32  1  0
 32 21  1  0
 32 33  2  0
 33 10  1  0
  9 34  1  0
 34 35  2  0
 35  6  1  0
M  END
> <assay_chembl_id>
CHEMBL1068275

> <assay_description>
Cytotoxicity against human LNCAP cells

> <document_journal>
Bioorg Med Chem Lett

> <molecule_chembl_id>
CHEMBL610630

> <standard_value>
20

> <IC50_uM>
0.02

> <Activity>
Yes

> <Canonical_Smiles>
CNC(=O)Nc1ccc(-c2nc(N3CC4CCC(C3)O4)c3cnn([C@H]4CC[C@H](O)CC4)c3n2)cc1

$$$$

  SciTegic03142313312D

 35 40  0  0  1  0            999 V2000
    7.7795   -7.5156    0.0000 C   0  0
    7.7840   -6.0157    0.0000 N   0  0
    6.4870   -5.2605    0.0000 C   0  0
    5.1855   -6.0062    0.0000 O   0  0
    6.4915   -3.7597    0.0000 N   0  0
    5.1945   -3.0045    0.0000 C   0  0
    5.1969   -1.5045    0.0000 C   0  0
    3.8991   -0.7525    0.0000 C   0  0
    2.5987   -1.5004    0.0000 C   0  0
    1.2990   -0.7500    0.0000 C   0  0
    1.2990    0.7500    0.0000 N   0  0
    0.0000    1.5000    0.0000 C   0  0
    0.0000    3.0008    0.0000 N   0  0
    0.3976    4.0929    0.0000 C   0  0
    1.9160    5.0370    0.0000 C   0  0  3  0  0  0
    3.4405    4.4165    0.0000 C   0  0
    2.0983    4.3984    0.0000 C   0  0
    0.8565    5.1517    0.0000 C   0  0  3  0  0  0
   -0.5573    4.3156    0.0000 C   0  0
    1.3526    6.4269    0.0000 O   0  0
   -1.2990    0.7500    0.0000 C   0  0
   -2.7248    1.2135    0.0000 C   0  0
   -3.6065    0.0000    0.0000 N   0  0
   -2.7248   -1.2135    0.0000 N   0  0
   -3.1884   -2.6409    0.0000 C   0  0  1  0  0  0
   -4.6234   -3.0602    0.0000 C   0  0
   -4.9781   -4.5176    0.0000 C   0  0
   -3.8933   -5.5536    0.0000 C   0  0  1  0  0  0
   -4.2480   -7.0110    0.0000 O   0  0
   -2.4537   -5.1320    0.0000 C   0  0
   -2.0990   -3.6745    0.0000 C   0  0
   -1.2990   -0.7500    0.0000 C   0  0
    0.0000   -1.5000    0.0000 N   0  0
    2.5965   -3.0004    0.0000 C   0  0
    3.8943   -3.7525    0.0000 C   0  0
  1  2  1  0
  2  3  1  0
  3  4  2  0
  3  5  1  0
  5  6  1  0
  6  7  2  0
  7  8  1  0
  8  9  2  0
  9 10  1  0
 10 11  2  0
 11 12  1  0
 12 13  1  0
 13 14  1  0
 15 14  1  4
 15 16  1  0
 16 17  1  0
 18 17  1  4
 18 19  1  0
 19 13  1  0
 18 20  1  0
 20 15  1  0
 12 21  2  0
 21 22  1  0
 22 23  2  0
 23 24  1  0
 25 24  1  6
 25 26  1  0
 26 27  1  0
 27 28  1  0
 28 29  1  6
 28 30  1  0
 30 31  1  0
 31 25  1  0
 24 32  1  0
 32 21  1  0
 32 33  2  0
 33 10  1  0
  9 34  1  0
 34 35  2  0
 35  6  1  0
M  END
> <assay_chembl_id>
CHEMBL1068275

> <assay_description>
Cytotoxicity against human LNCAP cells

> <document_journal>
Bioorg Med Chem Lett

> <molecule_chembl_id>
CHEMBL606621

> <standard_value>
20

> <IC50_uM>
0.02

> <Activity>
Yes

> <Canonical_Smiles>
CNC(=O)Nc1ccc(-c2nc(N3CC4CCC(C3)O4)c3cnn([C@H]4CC[C@@H](O)CC4)c3n2)cc1

$$$$

  SciTegic03142313312D

 36 41  0  0  1  0            999 V2000
    7.7795   -7.5156    0.0000 C   0  0
    7.7840   -6.0157    0.0000 N   0  0
    6.4870   -5.2605    0.0000 C   0  0
    5.1855   -6.0062    0.0000 O   0  0
    6.4915   -3.7597    0.0000 N   0  0
    5.1945   -3.0045    0.0000 C   0  0
    5.1969   -1.5045    0.0000 C   0  0
    3.8991   -0.7525    0.0000 C   0  0
    2.5987   -1.5004    0.0000 C   0  0
    1.2990   -0.7500    0.0000 C   0  0
    1.2990    0.7500    0.0000 N   0  0
    0.0000    1.5000    0.0000 C   0  0
    0.0000    3.0008    0.0000 N   0  0
    0.3976    4.0929    0.0000 C   0  0
    1.9160    5.0370    0.0000 C   0  0  3  0  0  0
    3.4405    4.4165    0.0000 C   0  0
    2.0983    4.3984    0.0000 C   0  0
    0.8565    5.1517    0.0000 C   0  0  3  0  0  0
   -0.5573    4.3156    0.0000 C   0  0
    1.3526    6.4269    0.0000 O   0  0
   -1.2990    0.7500    0.0000 C   0  0
   -2.7248    1.2135    0.0000 C   0  0
   -3.6065    0.0000    0.0000 N   0  0
   -2.7248   -1.2135    0.0000 N   0  0
   -3.1884   -2.6409    0.0000 C   0  0  1  0  0  0
   -4.6234   -3.0602    0.0000 C   0  0
   -4.9781   -4.5176    0.0000 C   0  0
   -3.8933   -5.5536    0.0000 C   0  0  2  0  0  0
   -4.2512   -7.0111    0.0000 O   0  0
   -5.6913   -7.4306    0.0000 C   0  0
   -2.4537   -5.1320    0.0000 C   0  0
   -2.0990   -3.6745    0.0000 C   0  0
   -1.2990   -0.7500    0.0000 C   0  0
    0.0000   -1.5000    0.0000 N   0  0
    2.5965   -3.0004    0.0000 C   0  0
    3.8943   -3.7525    0.0000 C   0  0
  1  2  1  0
  2  3  1  0
  3  4  2  0
  3  5  1  0
  5  6  1  0
  6  7  2  0
  7  8  1  0
  8  9  2  0
  9 10  1  0
 10 11  2  0
 11 12  1  0
 12 13  1  0
 13 14  1  0
 15 14  1  4
 15 16  1  0
 16 17  1  0
 18 17  1  4
 18 19  1  0
 19 13  1  0
 18 20  1  0
 20 15  1  0
 12 21  2  0
 21 22  1  0
 22 23  2  0
 23 24  1  0
 25 24  1  6
 25 26  1  0
 26 27  1  0
 27 28  1  0
 28 29  1  1
 29 30  1  0
 28 31  1  0
 31 32  1  0
 32 25  1  0
 24 33  1  0
 33 21  1  0
 33 34  2  0
 34 10  1  0
  9 35  1  0
 35 36  2  0
 36  6  1  0
M  END
> <assay_chembl_id>
CHEMBL1068275

> <assay_description>
Cytotoxicity against human LNCAP cells

> <document_journal>
Bioorg Med Chem Lett

> <molecule_chembl_id>
CHEMBL602276

> <standard_value>
2

> <IC50_uM>
0.002

> <Activity>
Yes

> <Canonical_Smiles>
CNC(=O)Nc1ccc(-c2nc(N3CC4CCC(C3)O4)c3cnn([C@H]4CC[C@H](OC)CC4)c3n2)cc1

$$$$

  SciTegic03142313312D

 36 41  0  0  1  0            999 V2000
    7.7795   -7.5156    0.0000 C   0  0
    7.7840   -6.0157    0.0000 N   0  0
    6.4870   -5.2605    0.0000 C   0  0
    5.1855   -6.0062    0.0000 O   0  0
    6.4915   -3.7597    0.0000 N   0  0
    5.1945   -3.0045    0.0000 C   0  0
    5.1969   -1.5045    0.0000 C   0  0
    3.8991   -0.7525    0.0000 C   0  0
    2.5987   -1.5004    0.0000 C   0  0
    1.2990   -0.7500    0.0000 C   0  0
    1.2990    0.7500    0.0000 N   0  0
    0.0000    1.5000    0.0000 C   0  0
    0.0000    3.0008    0.0000 N   0  0
    0.3976    4.0929    0.0000 C   0  0
    1.9160    5.0370    0.0000 C   0  0  3  0  0  0
    3.4405    4.4165    0.0000 C   0  0
    2.0983    4.3984    0.0000 C   0  0
    0.8565    5.1517    0.0000 C   0  0  3  0  0  0
   -0.5573    4.3156    0.0000 C   0  0
    1.3526    6.4269    0.0000 O   0  0
   -1.2990    0.7500    0.0000 C   0  0
   -2.7248    1.2135    0.0000 C   0  0
   -3.6065    0.0000    0.0000 N   0  0
   -2.7248   -1.2135    0.0000 N   0  0
   -3.1884   -2.6409    0.0000 C   0  0  1  0  0  0
   -4.6234   -3.0602    0.0000 C   0  0
   -4.9781   -4.5176    0.0000 C   0  0
   -3.8933   -5.5536    0.0000 C   0  0  1  0  0  0
   -4.2512   -7.0111    0.0000 O   0  0
   -5.6913   -7.4306    0.0000 C   0  0
   -2.4537   -5.1320    0.0000 C   0  0
   -2.0990   -3.6745    0.0000 C   0  0
   -1.2990   -0.7500    0.0000 C   0  0
    0.0000   -1.5000    0.0000 N   0  0
    2.5965   -3.0004    0.0000 C   0  0
    3.8943   -3.7525    0.0000 C   0  0
  1  2  1  0
  2  3  1  0
  3  4  2  0
  3  5  1  0
  5  6  1  0
  6  7  2  0
  7  8  1  0
  8  9  2  0
  9 10  1  0
 10 11  2  0
 11 12  1  0
 12 13  1  0
 13 14  1  0
 15 14  1  4
 15 16  1  0
 16 17  1  0
 18 17  1  4
 18 19  1  0
 19 13  1  0
 18 20  1  0
 20 15  1  0
 12 21  2  0
 21 22  1  0
 22 23  2  0
 23 24  1  0
 25 24  1  6
 25 26  1  0
 26 27  1  0
 27 28  1  0
 28 29  1  6
 29 30  1  0
 28 31  1  0
 31 32  1  0
 32 25  1  0
 24 33  1  0
 33 21  1  0
 33 34  2  0
 34 10  1  0
  9 35  1  0
 35 36  2  0
 36  6  1  0
M  END
> <assay_chembl_id>
CHEMBL1068275

> <assay_description>
Cytotoxicity against human LNCAP cells

> <document_journal>
Bioorg Med Chem Lett

> <molecule_chembl_id>
CHEMBL601445

> <standard_value>
1

> <IC50_uM>
0.001

> <Activity>
Yes

> <Canonical_Smiles>
CNC(=O)Nc1ccc(-c2nc(N3CC4CCC(C3)O4)c3cnn([C@H]4CC[C@@H](OC)CC4)c3n2)cc1

$$$$

  SciTegic03142313312D

 38 43  0  0  0  0            999 V2000
    7.7795   -7.5156    0.0000 C   0  0
    7.7840   -6.0157    0.0000 N   0  0
    6.4870   -5.2605    0.0000 C   0  0
    5.1855   -6.0062    0.0000 O   0  0
    6.4915   -3.7597    0.0000 N   0  0
    5.1945   -3.0045    0.0000 C   0  0
    5.1969   -1.5045    0.0000 C   0  0
    3.8991   -0.7525    0.0000 C   0  0
    2.5987   -1.5004    0.0000 C   0  0
    1.2990   -0.7500    0.0000 C   0  0
    1.2990    0.7500    0.0000 N   0  0
    0.0000    1.5000    0.0000 C   0  0
    0.0000    3.0008    0.0000 N   0  0
    0.3976    4.0929    0.0000 C   0  0
    1.9160    5.0370    0.0000 C   0  0  3  0  0  0
    3.4405    4.4165    0.0000 C   0  0
    2.0983    4.3984    0.0000 C   0  0
    0.8565    5.1517    0.0000 C   0  0  3  0  0  0
   -0.5573    4.3156    0.0000 C   0  0
    1.3526    6.4269    0.0000 O   0  0
   -1.2990    0.7500    0.0000 C   0  0
   -2.7248    1.2135    0.0000 C   0  0
   -3.6065    0.0000    0.0000 N   0  0
   -2.7248   -1.2135    0.0000 N   0  0
   -3.1884   -2.6409    0.0000 C   0  0
   -4.6234   -3.0602    0.0000 C   0  0
   -4.9781   -4.5176    0.0000 C   0  0
   -3.8933   -5.5536    0.0000 C   0  0
   -5.3238   -5.9345    0.0000 O   0  0
   -6.4091   -4.8991    0.0000 C   0  0
   -2.7976   -6.5496    0.0000 O   0  0
   -3.1512   -8.0074    0.0000 C   0  0
   -2.4537   -5.1320    0.0000 C   0  0
   -2.0990   -3.6745    0.0000 C   0  0
   -1.2990   -0.7500    0.0000 C   0  0
    0.0000   -1.5000    0.0000 N   0  0
    2.5965   -3.0004    0.0000 C   0  0
    3.8943   -3.7525    0.0000 C   0  0
  1  2  1  0
  2  3  1  0
  3  4  2  0
  3  5  1  0
  5  6  1  0
  6  7  2  0
  7  8  1  0
  8  9  2  0
  9 10  1  0
 10 11  2  0
 11 12  1  0
 12 13  1  0
 13 14  1  0
 15 14  1  4
 15 16  1  0
 16 17  1  0
 18 17  1  4
 18 19  1  0
 19 13  1  0
 18 20  1  0
 20 15  1  0
 12 21  2  0
 21 22  1  0
 22 23  2  0
 23 24  1  0
 24 25  1  0
 25 26  1  0
 26 27  1  0
 27 28  1  0
 28 29  1  0
 29 30  1  0
 28 31  1  0
 31 32  1  0
 28 33  1  0
 33 34  1  0
 34 25  1  0
 24 35  1  0
 35 21  1  0
 35 36  2  0
 36 10  1  0
  9 37  1  0
 37 38  2  0
 38  6  1  0
M  END
> <assay_chembl_id>
CHEMBL1068275

> <assay_description>
Cytotoxicity against human LNCAP cells

> <document_journal>
Bioorg Med Chem Lett

> <molecule_chembl_id>
CHEMBL601660

> <standard_value>
2

> <IC50_uM>
0.002

> <Activity>
Yes

> <Canonical_Smiles>
CNC(=O)Nc1ccc(-c2nc(N3CC4CCC(C3)O4)c3cnn(C4CCC(OC)(OC)CC4)c3n2)cc1

$$$$

  SciTegic03142313312D

 38 44  0  0  0  0            999 V2000
   -1.2253  -11.9476    0.0000 C   0  0
    0.2010  -11.4832    0.0000 N   0  0
    0.5130  -10.0151    0.0000 C   0  0
   -0.6020   -9.0118    0.0000 O   0  0
    1.9401   -9.5505    0.0000 N   0  0
    2.2522   -8.0824    0.0000 C   0  0
    3.6778   -7.6159    0.0000 C   0  0
    3.9866   -6.1481    0.0000 C   0  0
    2.8699   -5.1466    0.0000 C   0  0
    3.1765   -3.6775    0.0000 C   0  0
    4.6014   -3.2088    0.0000 N   0  0
    4.9079   -1.7404    0.0000 C   0  0
    6.3335   -1.2714    0.0000 N   0  0
    7.4952   -1.3078    0.0000 C   0  0
    8.8665   -2.4552    0.0000 C   0  0  3  0  0  0
    8.7535   -4.0973    0.0000 C   0  0
    8.3168   -2.8279    0.0000 C   0  0
    8.6444   -1.4129    0.0000 C   0  0  3  0  0  0
    7.4084   -0.3312    0.0000 C   0  0
   10.0108   -1.4857    0.0000 O   0  0
    3.7896   -0.7408    0.0000 C   0  0
    3.7843    0.7584    0.0000 C   0  0
    2.3561    1.2167    0.0000 N   0  0
    1.5007    0.0000    0.0000 N   0  0
    0.0000    0.0000    0.0000 C   0  0
   -0.7540    1.2970    0.0000 C   0  0
   -2.2621    1.2970    0.0000 C   0  0
   -3.0162    0.0000    0.0000 C   0  0
   -2.2621   -1.2970    0.0000 C   0  0
   -0.7540   -1.2970    0.0000 C   0  0
   -3.8909    1.2065    0.0000 O   0  0
   -5.3236    0.7390    0.0000 C   0  0
   -5.3236   -0.7540    0.0000 C   0  0
   -3.8909   -1.2065    0.0000 O   0  0
    2.3647   -1.2095    0.0000 C   0  0
    2.0582   -2.6779    0.0000 N   0  0
    1.4442   -5.6132    0.0000 C   0  0
    1.1354   -7.0810    0.0000 C   0  0
  1  2  1  0
  2  3  1  0
  3  4  2  0
  3  5  1  0
  5  6  1  0
  6  7  2  0
  7  8  1  0
  8  9  2  0
  9 10  1  0
 10 11  2  0
 11 12  1  0
 12 13  1  0
 13 14  1  0
 15 14  1  4
 15 16  1  0
 16 17  1  0
 18 17  1  4
 18 19  1  0
 19 13  1  0
 18 20  1  0
 20 15  1  0
 12 21  2  0
 21 22  1  0
 22 23  2  0
 23 24  1  0
 24 25  1  0
 25 26  1  0
 26 27  1  0
 27 28  1  0
 28 29  1  0
 29 30  1  0
 30 25  1  0
 28 31  1  0
 31 32  1  0
 32 33  1  0
 33 34  1  0
 34 28  1  0
 24 35  1  0
 35 21  1  0
 35 36  2  0
 36 10  1  0
  9 37  1  0
 37 38  2  0
 38  6  1  0
M  END
> <assay_chembl_id>
CHEMBL1068275

> <assay_description>
Cytotoxicity against human LNCAP cells

> <document_journal>
Bioorg Med Chem Lett

> <molecule_chembl_id>
CHEMBL601661

> <standard_value>
2

> <IC50_uM>
0.002

> <Activity>
Yes

> <Canonical_Smiles>
CNC(=O)Nc1ccc(-c2nc(N3CC4CCC(C3)O4)c3cnn(C4CCC5(CC4)OCCO5)c3n2)cc1

$$$$

  SciTegic03142313312D

 39 45  0  0  0  0            999 V2000
   -1.2253  -11.9476    0.0000 C   0  0
    0.2010  -11.4832    0.0000 N   0  0
    0.5130  -10.0151    0.0000 C   0  0
   -0.6020   -9.0118    0.0000 O   0  0
    1.9401   -9.5505    0.0000 N   0  0
    2.2521   -8.0824    0.0000 C   0  0
    3.6778   -7.6160    0.0000 C   0  0
    3.9866   -6.1481    0.0000 C   0  0
    2.8698   -5.1466    0.0000 C   0  0
    3.1765   -3.6775    0.0000 C   0  0
    4.6014   -3.2088    0.0000 N   0  0
    4.9079   -1.7404    0.0000 C   0  0
    6.3335   -1.2715    0.0000 N   0  0
    7.4952   -1.3079    0.0000 C   0  0
    8.8665   -2.4553    0.0000 C   0  0  3  0  0  0
    8.7535   -4.0973    0.0000 C   0  0
    8.3168   -2.8279    0.0000 C   0  0
    8.6443   -1.4129    0.0000 C   0  0  3  0  0  0
    7.4084   -0.3312    0.0000 C   0  0
   10.0108   -1.4857    0.0000 O   0  0
    3.7895   -0.7408    0.0000 C   0  0
    3.7843    0.7584    0.0000 C   0  0
    2.3561    1.2167    0.0000 N   0  0
    1.5007    0.0000    0.0000 N   0  0
    0.0000    0.0000    0.0000 C   0  0
   -0.7526    1.2945    0.0000 C   0  0
   -2.2578    1.2945    0.0000 C   0  0
   -3.0105    0.0000    0.0000 C   0  0
   -2.2578   -1.2945    0.0000 C   0  0
   -0.7526   -1.2945    0.0000 C   0  0
   -3.7631   -1.2945    0.0000 O   0  0
   -5.2683   -1.2945    0.0000 C   0  0
   -6.0209    0.0000    0.0000 C   0  0
   -5.2683    1.2945    0.0000 C   0  0
   -3.7631    1.2945    0.0000 O   0  0
    2.3647   -1.2095    0.0000 C   0  0
    2.0581   -2.6779    0.0000 N   0  0
    1.4442   -5.6132    0.0000 C   0  0
    1.1353   -7.0810    0.0000 C   0  0
  1  2  1  0
  2  3  1  0
  3  4  2  0
  3  5  1  0
  5  6  1  0
  6  7  2  0
  7  8  1  0
  8  9  2  0
  9 10  1  0
 10 11  2  0
 11 12  1  0
 12 13  1  0
 13 14  1  0
 15 14  1  4
 15 16  1  0
 16 17  1  0
 18 17  1  4
 18 19  1  0
 19 13  1  0
 18 20  1  0
 20 15  1  0
 12 21  2  0
 21 22  1  0
 22 23  2  0
 23 24  1  0
 24 25  1  0
 25 26  1  0
 26 27  1  0
 27 28  1  0
 28 29  1  0
 29 30  1  0
 30 25  1  0
 28 31  1  0
 31 32  1  0
 32 33  1  0
 33 34  1  0
 34 35  1  0
 35 28  1  0
 24 36  1  0
 36 21  1  0
 36 37  2  0
 37 10  1  0
  9 38  1  0
 38 39  2  0
 39  6  1  0
M  END
> <assay_chembl_id>
CHEMBL1068275

> <assay_description>
Cytotoxicity against human LNCAP cells

> <document_journal>
Bioorg Med Chem Lett

> <molecule_chembl_id>
CHEMBL601876

> <standard_value>
8

> <IC50_uM>
0.008

> <Activity>
Yes

> <Canonical_Smiles>
CNC(=O)Nc1ccc(-c2nc(N3CC4CCC(C3)O4)c3cnn(C4CCC5(CC4)OCCCO5)c3n2)cc1

$$$$

  SciTegic03142313312D

 39 45  0  0  0  0            999 V2000
   -1.5379  -13.4151    0.0000 C   0  0
   -1.2261  -11.9479    0.0000 C   0  0
    0.2010  -11.4832    0.0000 N   0  0
    0.5130  -10.0151    0.0000 C   0  0
   -0.6020   -9.0118    0.0000 O   0  0
    1.9401   -9.5505    0.0000 N   0  0
    2.2522   -8.0824    0.0000 C   0  0
    3.6778   -7.6159    0.0000 C   0  0
    3.9866   -6.1481    0.0000 C   0  0
    2.8699   -5.1466    0.0000 C   0  0
    3.1765   -3.6775    0.0000 C   0  0
    4.6014   -3.2088    0.0000 N   0  0
    4.9079   -1.7404    0.0000 C   0  0
    6.3335   -1.2714    0.0000 N   0  0
    7.4952   -1.3078    0.0000 C   0  0
    8.8665   -2.4552    0.0000 C   0  0  3  0  0  0
    8.7535   -4.0973    0.0000 C   0  0
    8.3168   -2.8279    0.0000 C   0  0
    8.6444   -1.4129    0.0000 C   0  0  3  0  0  0
    7.4084   -0.3312    0.0000 C   0  0
   10.0108   -1.4857    0.0000 O   0  0
    3.7896   -0.7408    0.0000 C   0  0
    3.7843    0.7584    0.0000 C   0  0
    2.3561    1.2167    0.0000 N   0  0
    1.5007    0.0000    0.0000 N   0  0
    0.0000    0.0000    0.0000 C   0  0
   -0.7540    1.2970    0.0000 C   0  0
   -2.2621    1.2970    0.0000 C   0  0
   -3.0162    0.0000    0.0000 C   0  0
   -2.2621   -1.2970    0.0000 C   0  0
   -0.7540   -1.2970    0.0000 C   0  0
   -3.8909    1.2065    0.0000 O   0  0
   -5.3236    0.7390    0.0000 C   0  0
   -5.3236   -0.7540    0.0000 C   0  0
   -3.8909   -1.2065    0.0000 O   0  0
    2.3647   -1.2095    0.0000 C   0  0
    2.0582   -2.6779    0.0000 N   0  0
    1.4442   -5.6132    0.0000 C   0  0
    1.1354   -7.0810    0.0000 C   0  0
  1  2  1  0
  2  3  1  0
  3  4  1  0
  4  5  2  0
  4  6  1  0
  6  7  1  0
  7  8  2  0
  8  9  1  0
  9 10  2  0
 10 11  1  0
 11 12  2  0
 12 13  1  0
 13 14  1  0
 14 15  1  0
 16 15  1  4
 16 17  1  0
 17 18  1  0
 19 18  1  4
 19 20  1  0
 20 14  1  0
 19 21  1  0
 21 16  1  0
 13 22  2  0
 22 23  1  0
 23 24  2  0
 24 25  1  0
 25 26  1  0
 26 27  1  0
 27 28  1  0
 28 29  1  0
 29 30  1  0
 30 31  1  0
 31 26  1  0
 29 32  1  0
 32 33  1  0
 33 34  1  0
 34 35  1  0
 35 29  1  0
 25 36  1  0
 36 22  1  0
 36 37  2  0
 37 11  1  0
 10 38  1  0
 38 39  2  0
 39  7  1  0
M  END
> <assay_chembl_id>
CHEMBL1068275

> <assay_description>
Cytotoxicity against human LNCAP cells

> <document_journal>
Bioorg Med Chem Lett

> <molecule_chembl_id>
CHEMBL600825

> <standard_value>
1

> <IC50_uM>
0.001

> <Activity>
Yes

> <Canonical_Smiles>
CCNC(=O)Nc1ccc(-c2nc(N3CC4CCC(C3)O4)c3cnn(C4CCC5(CC4)OCCO5)c3n2)cc1

$$$$

  SciTegic03142313312D

 40 46  0  0  0  0            999 V2000
   -0.6020   -9.0118    0.0000 O   0  0
    0.5130  -10.0151    0.0000 C   0  0
    0.2010  -11.4832    0.0000 N   0  0
   -1.2261  -11.9479    0.0000 C   0  0
   -1.5381  -13.4159    0.0000 C   0  0
   -2.9644  -13.8803    0.0000 F   0  0
    1.9401   -9.5505    0.0000 N   0  0
    2.2522   -8.0824    0.0000 C   0  0
    3.6778   -7.6159    0.0000 C   0  0
    3.9866   -6.1481    0.0000 C   0  0
    2.8699   -5.1466    0.0000 C   0  0
    3.1765   -3.6775    0.0000 C   0  0
    4.6014   -3.2088    0.0000 N   0  0
    4.9079   -1.7404    0.0000 C   0  0
    6.3335   -1.2714    0.0000 N   0  0
    7.4952   -1.3078    0.0000 C   0  0
    8.8665   -2.4552    0.0000 C   0  0  3  0  0  0
    8.7535   -4.0973    0.0000 C   0  0
    8.3168   -2.8279    0.0000 C   0  0
    8.6444   -1.4129    0.0000 C   0  0  3  0  0  0
    7.4084   -0.3312    0.0000 C   0  0
   10.0108   -1.4857    0.0000 O   0  0
    3.7896   -0.7408    0.0000 C   0  0
    3.7843    0.7584    0.0000 C   0  0
    2.3561    1.2167    0.0000 N   0  0
    1.5007    0.0000    0.0000 N   0  0
    0.0000    0.0000    0.0000 C   0  0
   -0.7540    1.2970    0.0000 C   0  0
   -2.2621    1.2970    0.0000 C   0  0
   -3.0162    0.0000    0.0000 C   0  0
   -2.2621   -1.2970    0.0000 C   0  0
   -0.7540   -1.2970    0.0000 C   0  0
   -3.8909    1.2065    0.0000 O   0  0
   -5.3236    0.7390    0.0000 C   0  0
   -5.3236   -0.7540    0.0000 C   0  0
   -3.8909   -1.2065    0.0000 O   0  0
    2.3647   -1.2095    0.0000 C   0  0
    2.0582   -2.6779    0.0000 N   0  0
    1.4442   -5.6132    0.0000 C   0  0
    1.1354   -7.0810    0.0000 C   0  0
  1  2  2  0
  2  3  1  0
  3  4  1  0
  4  5  1  0
  5  6  1  0
  2  7  1  0
  7  8  1  0
  8  9  2  0
  9 10  1  0
 10 11  2  0
 11 12  1  0
 12 13  2  0
 13 14  1  0
 14 15  1  0
 15 16  1  0
 17 16  1  4
 17 18  1  0
 18 19  1  0
 20 19  1  4
 20 21  1  0
 21 15  1  0
 20 22  1  0
 22 17  1  0
 14 23  2  0
 23 24  1  0
 24 25  2  0
 25 26  1  0
 26 27  1  0
 27 28  1  0
 28 29  1  0
 29 30  1  0
 30 31  1  0
 31 32  1  0
 32 27  1  0
 30 33  1  0
 33 34  1  0
 34 35  1  0
 35 36  1  0
 36 30  1  0
 26 37  1  0
 37 23  1  0
 37 38  2  0
 38 12  1  0
 11 39  1  0
 39 40  2  0
 40  8  1  0
M  END
> <assay_chembl_id>
CHEMBL1068275

> <assay_description>
Cytotoxicity against human LNCAP cells

> <document_journal>
Bioorg Med Chem Lett

> <molecule_chembl_id>
CHEMBL601023

> <standard_value>
1

> <IC50_uM>
0.001

> <Activity>
Yes

> <Canonical_Smiles>
O=C(NCCF)Nc1ccc(-c2nc(N3CC4CCC(C3)O4)c3cnn(C4CCC5(CC4)OCCO5)c3n2)cc1

$$$$

  SciTegic03142313312D

 40 47  0  0  0  0            999 V2000
   -0.6020   -9.0118    0.0000 O   0  0
    0.5130  -10.0151    0.0000 C   0  0
    1.9401   -9.5505    0.0000 N   0  0
    2.2522   -8.0824    0.0000 C   0  0
    3.6778   -7.6159    0.0000 C   0  0
    3.9866   -6.1481    0.0000 C   0  0
    2.8699   -5.1466    0.0000 C   0  0
    3.1765   -3.6775    0.0000 C   0  0
    4.6014   -3.2088    0.0000 N   0  0
    4.9079   -1.7404    0.0000 C   0  0
    6.3335   -1.2714    0.0000 N   0  0
    7.4952   -1.3078    0.0000 C   0  0
    8.8665   -2.4552    0.0000 C   0  0  3  0  0  0
    8.7535   -4.0973    0.0000 C   0  0
    8.3168   -2.8279    0.0000 C   0  0
    8.6444   -1.4129    0.0000 C   0  0  3  0  0  0
    7.4084   -0.3312    0.0000 C   0  0
   10.0108   -1.4857    0.0000 O   0  0
    3.7896   -0.7408    0.0000 C   0  0
    3.7843    0.7584    0.0000 C   0  0
    2.3561    1.2167    0.0000 N   0  0
    1.5007    0.0000    0.0000 N   0  0
    0.0000    0.0000    0.0000 C   0  0
   -0.7540    1.2970    0.0000 C   0  0
   -2.2621    1.2970    0.0000 C   0  0
   -3.0162    0.0000    0.0000 C   0  0
   -2.2621   -1.2970    0.0000 C   0  0
   -0.7540   -1.2970    0.0000 C   0  0
   -3.8909    1.2065    0.0000 O   0  0
   -5.3236    0.7390    0.0000 C   0  0
   -5.3236   -0.7540    0.0000 C   0  0
   -3.8909   -1.2065    0.0000 O   0  0
    2.3647   -1.2095    0.0000 C   0  0
    2.0582   -2.6779    0.0000 N   0  0
    1.4442   -5.6132    0.0000 C   0  0
    1.1354   -7.0810    0.0000 C   0  0
    0.2010  -11.4832    0.0000 N   0  0
   -1.2261  -11.9479    0.0000 C   0  0
   -2.1444  -13.0330    0.0000 C   0  0
   -2.6058  -11.6057    0.0000 C   0  0
  1  2  2  0
  2  3  1  0
  3  4  1  0
  4  5  2  0
  5  6  1  0
  6  7  2  0
  7  8  1  0
  8  9  2  0
  9 10  1  0
 10 11  1  0
 11 12  1  0
 13 12  1  4
 13 14  1  0
 14 15  1  0
 16 15  1  4
 16 17  1  0
 17 11  1  0
 16 18  1  0
 18 13  1  0
 10 19  2  0
 19 20  1  0
 20 21  2  0
 21 22  1  0
 22 23  1  0
 23 24  1  0
 24 25  1  0
 25 26  1  0
 26 27  1  0
 27 28  1  0
 28 23  1  0
 26 29  1  0
 29 30  1  0
 30 31  1  0
 31 32  1  0
 32 26  1  0
 22 33  1  0
 33 19  1  0
 33 34  2  0
 34  8  1  0
  7 35  1  0
 35 36  2  0
 36  4  1  0
  2 37  1  0
 37 38  1  0
 38 39  1  0
 39 40  1  0
 40 38  1  0
M  END
> <assay_chembl_id>
CHEMBL1068275

> <assay_description>
Cytotoxicity against human LNCAP cells

> <document_journal>
Bioorg Med Chem Lett

> <molecule_chembl_id>
CHEMBL600213

> <standard_value>
2

> <IC50_uM>
0.002

> <Activity>
Yes

> <Canonical_Smiles>
O=C(Nc1ccc(-c2nc(N3CC4CCC(C3)O4)c3cnn(C4CCC5(CC4)OCCO5)c3n2)cc1)NC1CC1

$$$$

  SciTegic03142313312D

 43 50  0  0  0  0            999 V2000
   -0.6020   -9.0118    0.0000 O   0  0
    0.5130  -10.0151    0.0000 C   0  0
    0.2010  -11.4832    0.0000 N   0  0
   -1.2261  -11.9479    0.0000 C   0  0
   -1.5401  -13.4147    0.0000 C   0  0
   -2.9673  -13.8762    0.0000 C   0  0
   -4.0806  -12.8709    0.0000 C   0  0
   -3.7667  -11.4041    0.0000 C   0  0
   -2.3395  -10.9426    0.0000 C   0  0
    1.9401   -9.5505    0.0000 N   0  0
    2.2522   -8.0824    0.0000 C   0  0
    3.6778   -7.6159    0.0000 C   0  0
    3.9866   -6.1481    0.0000 C   0  0
    2.8699   -5.1466    0.0000 C   0  0
    3.1765   -3.6775    0.0000 C   0  0
    4.6014   -3.2088    0.0000 N   0  0
    4.9079   -1.7404    0.0000 C   0  0
    6.3335   -1.2714    0.0000 N   0  0
    7.4952   -1.3078    0.0000 C   0  0
    8.8665   -2.4552    0.0000 C   0  0  3  0  0  0
    8.7535   -4.0973    0.0000 C   0  0
    8.3168   -2.8279    0.0000 C   0  0
    8.6444   -1.4129    0.0000 C   0  0  3  0  0  0
    7.4084   -0.3312    0.0000 C   0  0
   10.0108   -1.4857    0.0000 O   0  0
    3.7896   -0.7408    0.0000 C   0  0
    3.7843    0.7584    0.0000 C   0  0
    2.3561    1.2167    0.0000 N   0  0
    1.5007    0.0000    0.0000 N   0  0
    0.0000    0.0000    0.0000 C   0  0
   -0.7540    1.2970    0.0000 C   0  0
   -2.2621    1.2970    0.0000 C   0  0
   -3.0162    0.0000    0.0000 C   0  0
   -2.2621   -1.2970    0.0000 C   0  0
   -0.7540   -1.2970    0.0000 C   0  0
   -3.8909    1.2065    0.0000 O   0  0
   -5.3236    0.7390    0.0000 C   0  0
   -5.3236   -0.7540    0.0000 C   0  0
   -3.8909   -1.2065    0.0000 O   0  0
    2.3647   -1.2095    0.0000 C   0  0
    2.0582   -2.6779    0.0000 N   0  0
    1.4442   -5.6132    0.0000 C   0  0
    1.1354   -7.0810    0.0000 C   0  0
  1  2  2  0
  2  3  1  0
  3  4  1  0
  4  5  2  0
  5  6  1  0
  6  7  2  0
  7  8  1  0
  8  9  2  0
  9  4  1  0
  2 10  1  0
 10 11  1  0
 11 12  2  0
 12 13  1  0
 13 14  2  0
 14 15  1  0
 15 16  2  0
 16 17  1  0
 17 18  1  0
 18 19  1  0
 20 19  1  4
 20 21  1  0
 21 22  1  0
 23 22  1  4
 23 24  1  0
 24 18  1  0
 23 25  1  0
 25 20  1  0
 17 26  2  0
 26 27  1  0
 27 28  2  0
 28 29  1  0
 29 30  1  0
 30 31  1  0
 31 32  1  0
 32 33  1  0
 33 34  1  0
 34 35  1  0
 35 30  1  0
 33 36  1  0
 36 37  1  0
 37 38  1  0
 38 39  1  0
 39 33  1  0
 29 40  1  0
 40 26  1  0
 40 41  2  0
 41 15  1  0
 14 42  1  0
 42 43  2  0
 43 11  1  0
M  END
> <assay_chembl_id>
CHEMBL1068275

> <assay_description>
Cytotoxicity against human LNCAP cells

> <document_journal>
Bioorg Med Chem Lett

> <molecule_chembl_id>
CHEMBL600366

> <standard_value>
4

> <IC50_uM>
0.004

> <Activity>
Yes

> <Canonical_Smiles>
O=C(Nc1ccccc1)Nc1ccc(-c2nc(N3CC4CCC(C3)O4)c3cnn(C4CCC5(CC4)OCCO5)c3n2)cc1

$$$$

  SciTegic03142313312D

 43 50  0  0  0  0            999 V2000
   -0.6020   -9.0118    0.0000 O   0  0
    0.5130  -10.0151    0.0000 C   0  0
    0.2010  -11.4832    0.0000 N   0  0
   -1.2261  -11.9479    0.0000 C   0  0
   -1.5401  -13.4147    0.0000 C   0  0
   -2.9673  -13.8762    0.0000 C   0  0
   -4.0806  -12.8709    0.0000 N   0  0
   -3.7667  -11.4041    0.0000 C   0  0
   -2.3395  -10.9426    0.0000 C   0  0
    1.9401   -9.5505    0.0000 N   0  0
    2.2522   -8.0824    0.0000 C   0  0
    3.6778   -7.6159    0.0000 C   0  0
    3.9866   -6.1481    0.0000 C   0  0
    2.8699   -5.1466    0.0000 C   0  0
    3.1765   -3.6775    0.0000 C   0  0
    4.6014   -3.2088    0.0000 N   0  0
    4.9079   -1.7404    0.0000 C   0  0
    6.3335   -1.2714    0.0000 N   0  0
    7.4952   -1.3078    0.0000 C   0  0
    8.8665   -2.4552    0.0000 C   0  0  3  0  0  0
    8.7535   -4.0973    0.0000 C   0  0
    8.3168   -2.8279    0.0000 C   0  0
    8.6444   -1.4129    0.0000 C   0  0  3  0  0  0
    7.4084   -0.3312    0.0000 C   0  0
   10.0108   -1.4857    0.0000 O   0  0
    3.7896   -0.7408    0.0000 C   0  0
    3.7843    0.7584    0.0000 C   0  0
    2.3561    1.2167    0.0000 N   0  0
    1.5007    0.0000    0.0000 N   0  0
    0.0000    0.0000    0.0000 C   0  0
   -0.7540    1.2970    0.0000 C   0  0
   -2.2621    1.2970    0.0000 C   0  0
   -3.0162    0.0000    0.0000 C   0  0
   -2.2621   -1.2970    0.0000 C   0  0
   -0.7540   -1.2970    0.0000 C   0  0
   -3.8909    1.2065    0.0000 O   0  0
   -5.3236    0.7390    0.0000 C   0  0
   -5.3236   -0.7540    0.0000 C   0  0
   -3.8909   -1.2065    0.0000 O   0  0
    2.3647   -1.2095    0.0000 C   0  0
    2.0582   -2.6779    0.0000 N   0  0
    1.4442   -5.6132    0.0000 C   0  0
    1.1354   -7.0810    0.0000 C   0  0
  1  2  2  0
  2  3  1  0
  3  4  1  0
  4  5  2  0
  5  6  1  0
  6  7  2  0
  7  8  1  0
  8  9  2  0
  9  4  1  0
  2 10  1  0
 10 11  1  0
 11 12  2  0
 12 13  1  0
 13 14  2  0
 14 15  1  0
 15 16  2  0
 16 17  1  0
 17 18  1  0
 18 19  1  0
 20 19  1  4
 20 21  1  0
 21 22  1  0
 23 22  1  4
 23 24  1  0
 24 18  1  0
 23 25  1  0
 25 20  1  0
 17 26  2  0
 26 27  1  0
 27 28  2  0
 28 29  1  0
 29 30  1  0
 30 31  1  0
 31 32  1  0
 32 33  1  0
 33 34  1  0
 34 35  1  0
 35 30  1  0
 33 36  1  0
 36 37  1  0
 37 38  1  0
 38 39  1  0
 39 33  1  0
 29 40  1  0
 40 26  1  0
 40 41  2  0
 41 15  1  0
 14 42  1  0
 42 43  2  0
 43 11  1  0
M  END
> <assay_chembl_id>
CHEMBL1068275

> <assay_description>
Cytotoxicity against human LNCAP cells

> <document_journal>
Bioorg Med Chem Lett

> <molecule_chembl_id>
CHEMBL600367

> <standard_value>
1

> <IC50_uM>
0.001

> <Activity>
Yes

> <Canonical_Smiles>
O=C(Nc1ccncc1)Nc1ccc(-c2nc(N3CC4CCC(C3)O4)c3cnn(C4CCC5(CC4)OCCO5)c3n2)cc1

$$$$

  SciTegic03142313312D

 43 50  0  0  0  0            999 V2000
   -0.6020   -9.0118    0.0000 O   0  0
    0.5130  -10.0151    0.0000 C   0  0
    1.9401   -9.5505    0.0000 N   0  0
    2.2522   -8.0824    0.0000 C   0  0
    3.6778   -7.6159    0.0000 C   0  0
    3.9866   -6.1481    0.0000 C   0  0
    2.8699   -5.1466    0.0000 C   0  0
    3.1765   -3.6775    0.0000 C   0  0
    4.6014   -3.2088    0.0000 N   0  0
    4.9079   -1.7404    0.0000 C   0  0
    6.3335   -1.2714    0.0000 N   0  0
    7.4952   -1.3078    0.0000 C   0  0
    8.8665   -2.4552    0.0000 C   0  0  3  0  0  0
    8.7535   -4.0973    0.0000 C   0  0
    8.3168   -2.8279    0.0000 C   0  0
    8.6444   -1.4129    0.0000 C   0  0  3  0  0  0
    7.4084   -0.3312    0.0000 C   0  0
   10.0108   -1.4857    0.0000 O   0  0
    3.7896   -0.7408    0.0000 C   0  0
    3.7843    0.7584    0.0000 C   0  0
    2.3561    1.2167    0.0000 N   0  0
    1.5007    0.0000    0.0000 N   0  0
    0.0000    0.0000    0.0000 C   0  0
   -0.7540    1.2970    0.0000 C   0  0
   -2.2621    1.2970    0.0000 C   0  0
   -3.0162    0.0000    0.0000 C   0  0
   -2.2621   -1.2970    0.0000 C   0  0
   -0.7540   -1.2970    0.0000 C   0  0
   -3.8909    1.2065    0.0000 O   0  0
   -5.3236    0.7390    0.0000 C   0  0
   -5.3236   -0.7540    0.0000 C   0  0
   -3.8909   -1.2065    0.0000 O   0  0
    2.3647   -1.2095    0.0000 C   0  0
    2.0582   -2.6779    0.0000 N   0  0
    1.4442   -5.6132    0.0000 C   0  0
    1.1354   -7.0810    0.0000 C   0  0
    0.2010  -11.4832    0.0000 N   0  0
   -1.2261  -11.9479    0.0000 C   0  0
   -1.5401  -13.4147    0.0000 C   0  0
   -2.9673  -13.8762    0.0000 C   0  0
   -4.0806  -12.8709    0.0000 C   0  0
   -3.7667  -11.4041    0.0000 N   0  0
   -2.3395  -10.9426    0.0000 C   0  0
  1  2  2  0
  2  3  1  0
  3  4  1  0
  4  5  2  0
  5  6  1  0
  6  7  2  0
  7  8  1  0
  8  9  2  0
  9 10  1  0
 10 11  1  0
 11 12  1  0
 13 12  1  4
 13 14  1  0
 14 15  1  0
 16 15  1  4
 16 17  1  0
 17 11  1  0
 16 18  1  0
 18 13  1  0
 10 19  2  0
 19 20  1  0
 20 21  2  0
 21 22  1  0
 22 23  1  0
 23 24  1  0
 24 25  1  0
 25 26  1  0
 26 27  1  0
 27 28  1  0
 28 23  1  0
 26 29  1  0
 29 30  1  0
 30 31  1  0
 31 32  1  0
 32 26  1  0
 22 33  1  0
 33 19  1  0
 33 34  2  0
 34  8  1  0
  7 35  1  0
 35 36  2  0
 36  4  1  0
  2 37  1  0
 37 38  1  0
 38 39  2  0
 39 40  1  0
 40 41  2  0
 41 42  1  0
 42 43  2  0
 43 38  1  0
M  END
> <assay_chembl_id>
CHEMBL1068275

> <assay_description>
Cytotoxicity against human LNCAP cells

> <document_journal>
Bioorg Med Chem Lett

> <molecule_chembl_id>
CHEMBL600368

> <standard_value>
1

> <IC50_uM>
0.001

> <Activity>
Yes

> <Canonical_Smiles>
O=C(Nc1ccc(-c2nc(N3CC4CCC(C3)O4)c3cnn(C4CCC5(CC4)OCCO5)c3n2)cc1)Nc1cccnc1

$$$$

  SciTegic03142313312D

 38 39  0  0  1  0            999 V2000
    1.3963  -29.1408    0.0000 C   0  0
    2.2816  -27.9299    0.0000 C   0  0
    1.6762  -26.5566    0.0000 C   0  0
    2.5620  -25.3451    0.0000 C   0  0
    1.9566  -23.9718    0.0000 C   0  0
    2.8425  -22.7603    0.0000 C   0  0
    2.2370  -21.3870    0.0000 C   0  0
    3.1229  -20.1755    0.0000 C   0  0
    2.5175  -18.8022    0.0000 C   0  0
    3.4033  -17.5907    0.0000 C   0  0
    2.7979  -16.2174    0.0000 C   0  0
    1.3060  -16.0541    0.0000 C   0  0
    0.7005  -14.6808    0.0000 C   0  0
   -0.7914  -14.5175    0.0000 C   0  0
   -1.3968  -13.1442    0.0000 C   0  0
   -2.8887  -12.9809    0.0000 C   0  0
   -3.4941  -11.6076    0.0000 C   0  0
   -4.9860  -11.4443    0.0000 C   0  0
   -5.5915  -10.0710    0.0000 N   0  0
   -7.0834   -9.9077    0.0000 C   0  0
   -7.9699  -11.1177    0.0000 O   0  0
   -7.6878   -8.5368    0.0000 C   0  0  2  0  0  0
   -9.1532   -8.2165    0.0000 C   0  0
   -9.3014   -6.7238    0.0000 S   0  0
   -7.9323   -6.1429    0.0000 C   0  0  3  0  0  0
   -7.6095   -4.6773    0.0000 C   0  0
   -8.7168   -3.6655    0.0000 C   0  0
   -8.3942   -2.2006    0.0000 C   0  0
   -9.5042   -1.1905    0.0000 O   0  0
  -10.9335   -1.6456    0.0000 C   0  0
   -6.9643   -1.7475    0.0000 C   0  0
   -6.6385   -0.2825    0.0000 O   0  0
   -5.2079    0.1686    0.0000 C   0  0
   -5.8569   -2.7594    0.0000 C   0  0
   -4.4253   -2.3090    0.0000 O   0  0
   -3.3194   -3.3224    0.0000 C   0  0
   -6.1795   -4.2243    0.0000 C   0  0
   -6.9303   -7.2421    0.0000 N   0  0
  1  2  1  0
  2  3  1  0
  3  4  1  0
  4  5  1  0
  5  6  1  0
  6  7  1  0
  7  8  1  0
  8  9  1  0
  9 10  1  0
 10 11  2  0
 11 12  1  0
 12 13  1  0
 13 14  1  0
 14 15  1  0
 15 16  1  0
 16 17  1  0
 17 18  1  0
 18 19  1  0
 19 20  1  0
 20 21  2  0
 22 20  1  6
 22 23  1  0
 23 24  1  0
 24 25  1  0
 25 26  1  4
 26 27  2  0
 27 28  1  0
 28 29  1  0
 29 30  1  0
 28 31  2  0
 31 32  1  0
 32 33  1  0
 31 34  1  0
 34 35  1  0
 35 36  1  0
 34 37  2  0
 37 26  1  0
 25 38  1  0
 38 22  1  0
M  END
> <assay_chembl_id>
CHEMBL1066494

> <assay_description>
Antiproliferative activity against human LNCAP cells after 96 hrs by SRB assay

> <document_journal>
Bioorg Med Chem

> <molecule_chembl_id>
CHEMBL603889

> <standard_value>
700

> <IC50_uM>
0.7

> <Activity>
Yes

> <Canonical_Smiles>
CCCCCCCCC/C=C\CCCCCCCNC(=O)[C@@H]1CSC(c2cc(OC)c(OC)c(OC)c2)N1

$$$$

  SciTegic03142313312D

 38 39  0  0  1  0            999 V2000
    1.3963  -29.1408    0.0000 C   0  0
    2.2816  -27.9299    0.0000 C   0  0
    1.6762  -26.5566    0.0000 C   0  0
    2.5620  -25.3451    0.0000 C   0  0
    1.9566  -23.9718    0.0000 C   0  0
    2.8425  -22.7603    0.0000 C   0  0
    2.2370  -21.3870    0.0000 C   0  0
    3.1229  -20.1755    0.0000 C   0  0
    2.5175  -18.8022    0.0000 C   0  0
    3.4033  -17.5907    0.0000 C   0  0
    2.7979  -16.2174    0.0000 C   0  0
    3.6837  -15.0058    0.0000 C   0  0
    3.0783  -13.6325    0.0000 C   0  0
    3.9641  -12.4210    0.0000 C   0  0
    3.3587  -11.0477    0.0000 C   0  0
    4.2445   -9.8362    0.0000 C   0  0
    3.6391   -8.4629    0.0000 C   0  0
    4.5250   -7.2514    0.0000 C   0  0
    3.9195   -5.8781    0.0000 N   0  0
    4.8054   -4.6666    0.0000 C   0  0
    6.2966   -4.8284    0.0000 O   0  0
    4.2010   -3.2956    0.0000 C   0  0  2  0  0  0
    4.9531   -1.9978    0.0000 C   0  0
    3.9511   -0.8815    0.0000 S   0  0
    2.5987   -1.5004    0.0000 C   0  0  3  0  0  0
    1.2990   -0.7500    0.0000 C   0  0
    1.2990    0.7500    0.0000 C   0  0
    0.0000    1.5000    0.0000 C   0  0
    0.0031    3.0008    0.0000 O   0  0
    1.3032    3.7490    0.0000 C   0  0
   -1.2990    0.7500    0.0000 C   0  0
   -2.6003    1.4977    0.0000 O   0  0
   -3.8983    0.7459    0.0000 C   0  0
   -1.2990   -0.7500    0.0000 C   0  0
   -2.5972   -1.5031    0.0000 O   0  0
   -2.5951   -3.0031    0.0000 C   0  0
    0.0000   -1.5000    0.0000 C   0  0
    2.7343   -2.9815    0.0000 N   0  0
  1  2  1  0
  2  3  1  0
  3  4  1  0
  4  5  1  0
  5  6  1  0
  6  7  1  0
  7  8  1  0
  8  9  1  0
  9 10  1  0
 10 11  2  0
 11 12  1  0
 12 13  1  0
 13 14  1  0
 14 15  1  0
 15 16  1  0
 16 17  1  0
 17 18  1  0
 18 19  1  0
 19 20  1  0
 20 21  2  0
 22 20  1  1
 22 23  1  0
 23 24  1  0
 24 25  1  0
 25 26  1  4
 26 27  2  0
 27 28  1  0
 28 29  1  0
 29 30  1  0
 28 31  2  0
 31 32  1  0
 32 33  1  0
 31 34  1  0
 34 35  1  0
 35 36  1  0
 34 37  2  0
 37 26  1  0
 25 38  1  0
 38 22  1  0
M  END
> <assay_chembl_id>
CHEMBL1066494

> <assay_description>
Antiproliferative activity against human LNCAP cells after 96 hrs by SRB assay

> <document_journal>
Bioorg Med Chem

> <molecule_chembl_id>
CHEMBL598664

> <standard_value>
600

> <IC50_uM>
0.6

> <Activity>
Yes

> <Canonical_Smiles>
CCCCCCCCC/C=C/CCCCCCCNC(=O)[C@@H]1CSC(c2cc(OC)c(OC)c(OC)c2)N1

$$$$

  SciTegic03142313312D

 36 37  0  0  1  0            999 V2000
    1.3963  -29.1408    0.0000 C   0  0
    2.2816  -27.9299    0.0000 C   0  0
    1.6762  -26.5566    0.0000 C   0  0
    2.5620  -25.3451    0.0000 C   0  0
    1.9566  -23.9718    0.0000 C   0  0
    2.8425  -22.7603    0.0000 C   0  0
    2.2370  -21.3870    0.0000 C   0  0
    3.1229  -20.1755    0.0000 C   0  0
    2.5175  -18.8022    0.0000 C   0  0
    3.4033  -17.5907    0.0000 C   0  0
    2.7979  -16.2174    0.0000 C   0  0
    3.6837  -15.0058    0.0000 C   0  0
    3.0783  -13.6325    0.0000 C   0  0
    3.9641  -12.4210    0.0000 C   0  0
    3.3587  -11.0477    0.0000 C   0  0
    4.2445   -9.8362    0.0000 C   0  0
    3.6391   -8.4629    0.0000 C   0  0
    4.5250   -7.2514    0.0000 C   0  0
    3.9195   -5.8781    0.0000 N   0  0
    4.8054   -4.6666    0.0000 C   0  0
    6.2966   -4.8284    0.0000 O   0  0
    4.2010   -3.2956    0.0000 C   0  0  2  0  0  0
    4.9531   -1.9978    0.0000 C   0  0
    3.9511   -0.8815    0.0000 S   0  0
    2.5987   -1.5004    0.0000 C   0  0  3  0  0  0
    1.2990   -0.7500    0.0000 C   0  0
    1.2990    0.7500    0.0000 C   0  0
    0.0000    1.5000    0.0000 C   0  0
   -1.2990    0.7500    0.0000 C   0  0
   -2.5973    1.5031    0.0000 O   0  0
   -2.5951    3.0031    0.0000 C   0  0
   -1.2990   -0.7500    0.0000 C   0  0
   -2.5972   -1.5031    0.0000 O   0  0
   -2.5951   -3.0031    0.0000 C   0  0
    0.0000   -1.5000    0.0000 C   0  0
    2.7343   -2.9815    0.0000 N   0  0
  1  2  1  0
  2  3  1  0
  3  4  1  0
  4  5  1  0
  5  6  1  0
  6  7  1  0
  7  8  1  0
  8  9  1  0
  9 10  1  0
 10 11  2  0
 11 12  1  0
 12 13  1  0
 13 14  1  0
 14 15  1  0
 15 16  1  0
 16 17  1  0
 17 18  1  0
 18 19  1  0
 19 20  1  0
 20 21  2  0
 22 20  1  1
 22 23  1  0
 23 24  1  0
 24 25  1  0
 25 26  1  4
 26 27  2  0
 27 28  1  0
 28 29  2  0
 29 30  1  0
 30 31  1  0
 29 32  1  0
 32 33  1  0
 33 34  1  0
 32 35  2  0
 35 26  1  0
 25 36  1  0
 36 22  1  0
M  END
> <assay_chembl_id>
CHEMBL1066494

> <assay_description>
Antiproliferative activity against human LNCAP cells after 96 hrs by SRB assay

> <document_journal>
Bioorg Med Chem

> <molecule_chembl_id>
CHEMBL598304

> <standard_value>
800

> <IC50_uM>
0.8

> <Activity>
Yes

> <Canonical_Smiles>
CCCCCCCCC/C=C/CCCCCCCNC(=O)[C@@H]1CSC(c2ccc(OC)c(OC)c2)N1

$$$$

  SciTegic03142313312D

 32 33  0  0  1  0            999 V2000
    1.6767  -26.5560    0.0000 C   0  0
    2.5620  -25.3451    0.0000 C   0  0
    1.9566  -23.9718    0.0000 C   0  0
    2.8425  -22.7603    0.0000 C   0  0
    2.2370  -21.3870    0.0000 C   0  0
    3.1229  -20.1755    0.0000 C   0  0
    2.5175  -18.8022    0.0000 C   0  0
    3.4033  -17.5907    0.0000 C   0  0
    2.7979  -16.2174    0.0000 C   0  0
    3.6837  -15.0058    0.0000 C   0  0
    3.0783  -13.6325    0.0000 C   0  0
    3.9641  -12.4210    0.0000 C   0  0
    3.3587  -11.0477    0.0000 C   0  0
    4.2445   -9.8362    0.0000 C   0  0
    3.6391   -8.4629    0.0000 C   0  0
    4.5250   -7.2514    0.0000 C   0  0
    3.9195   -5.8781    0.0000 N   0  0
    4.8054   -4.6666    0.0000 C   0  0
    6.2966   -4.8284    0.0000 O   0  0
    4.2010   -3.2956    0.0000 C   0  0  2  0  0  0
    4.9531   -1.9978    0.0000 C   0  0
    3.9511   -0.8815    0.0000 S   0  0
    2.5987   -1.5004    0.0000 C   0  0  3  0  0  0
    1.2990   -0.7500    0.0000 C   0  0
    1.2990    0.7500    0.0000 C   0  0
    0.0000    1.5000    0.0000 C   0  0
   -1.2990    0.7500    0.0000 C   0  0
   -1.2990   -0.7500    0.0000 C   0  0
   -2.5972   -1.5031    0.0000 O   0  0
   -2.5951   -3.0031    0.0000 C   0  0
    0.0000   -1.5000    0.0000 C   0  0
    2.7343   -2.9815    0.0000 N   0  0
  1  2  1  0
  2  3  1  0
  3  4  1  0
  4  5  1  0
  5  6  1  0
  6  7  1  0
  7  8  1  0
  8  9  1  0
  9 10  1  0
 10 11  1  0
 11 12  1  0
 12 13  1  0
 13 14  1  0
 14 15  1  0
 15 16  1  0
 16 17  1  0
 17 18  1  0
 18 19  2  0
 20 18  1  1
 20 21  1  0
 21 22  1  0
 22 23  1  0
 23 24  1  4
 24 25  2  0
 25 26  1  0
 26 27  2  0
 27 28  1  0
 28 29  1  0
 29 30  1  0
 28 31  2  0
 31 24  1  0
 23 32  1  0
 32 20  1  0
M  END
> <assay_chembl_id>
CHEMBL1066494

> <assay_description>
Antiproliferative activity against human LNCAP cells after 96 hrs by SRB assay

> <document_journal>
Bioorg Med Chem

> <molecule_chembl_id>
CHEMBL599749

> <standard_value>
500

> <IC50_uM>
0.5

> <Activity>
Yes

> <Canonical_Smiles>
CCCCCCCCCCCCCCCCNC(=O)[C@@H]1CSC(c2cccc(OC)c2)N1

$$$$

  SciTegic03142313312D

 19 19  0  0  0  0            999 V2000
    9.0819   -9.7710    0.0000 O   0  0
    7.7815  -10.5187    0.0000 C   0  0
    6.4833   -9.7656    0.0000 C   0  0
    6.4855   -8.2648    0.0000 C   0  0
    5.1873   -7.5117    0.0000 C   0  0
    5.1894   -6.0109    0.0000 C   0  0
    3.8912   -5.2578    0.0000 C   0  0
    3.8933   -3.7570    0.0000 C   0  0
    2.5951   -3.0039    0.0000 C   0  0
    1.2948   -3.7516    0.0000 O   0  0
    2.5973   -1.5031    0.0000 N   0  0
    1.2990   -0.7500    0.0000 C   0  0
    1.2990    0.7500    0.0000 C   0  0
    0.0000    1.5000    0.0000 C   0  0
   -1.2990    0.7500    0.0000 C   0  0
   -1.2990   -0.7500    0.0000 C   0  0
    0.0000   -1.5000    0.0000 C   0  0
    7.7794  -12.0195    0.0000 N   0  0
    9.0769  -12.7722    0.0000 O   0  0
  1  2  2  0
  2  3  1  0
  3  4  1  0
  4  5  1  0
  5  6  1  0
  6  7  1  0
  7  8  1  0
  8  9  1  0
  9 10  2  0
  9 11  1  0
 11 12  1  0
 12 13  2  0
 13 14  1  0
 14 15  2  0
 15 16  1  0
 16 17  2  0
 17 12  1  0
  2 18  1  0
 18 19  1  0
M  END
> <assay_chembl_id>
CHEMBL1065576

> <assay_description>
Antiproliferative activity against human LNCAP cells

> <document_journal>
J Med Chem

> <molecule_chembl_id>
CHEMBL98

> <standard_value>
580

> <IC50_uM>
0.58

> <Activity>
Yes

> <Canonical_Smiles>
O=C(CCCCCCC(=O)Nc1ccccc1)NO

$$$$

  SciTegic03142313312D

 21 23  0  0  0  0            999 V2000
    8.3463   -2.7198    0.0000 O   0  0
    7.7381   -4.0910    0.0000 N   0  3
    8.6219   -5.3029    0.0000 O   0  5
    6.2484   -4.2507    0.0000 C   0  0
    5.4984   -5.5497    0.0000 C   0  0
    4.0312   -5.2378    0.0000 C   0  0
    3.8933   -3.7570    0.0000 C   0  0
    2.5951   -3.0039    0.0000 C   0  0
    2.5973   -1.5031    0.0000 C   0  0
    1.2990   -0.7500    0.0000 C   0  0
    1.2990    0.7500    0.0000 C   0  0
    0.0000    1.5000    0.0000 C   0  0
   -1.2990    0.7500    0.0000 C   0  0
   -2.5981    1.5000    0.0000 C   0  0
   -3.8971    0.7500    0.0000 C   0  0
   -3.8971   -0.7500    0.0000 C   0  0
   -2.5981   -1.5000    0.0000 C   0  0
   -2.5981   -3.0000    0.0000 O   0  0
   -1.2990   -0.7500    0.0000 C   0  0
    0.0000   -1.5000    0.0000 N   0  0
    5.2447   -3.1359    0.0000 O   0  0
  1  2  2  0
  2  3  1  0
  2  4  1  0
  4  5  2  0
  5  6  1  0
  6  7  2  0
  7  8  1  0
  8  9  2  0
  9 10  1  0
 10 11  2  0
 11 12  1  0
 12 13  2  0
 13 14  1  0
 14 15  2  0
 15 16  1  0
 16 17  2  0
 17 18  1  0
 17 19  1  0
 19 13  1  0
 19 20  2  0
 20 10  1  0
  7 21  1  0
 21  4  1  0
M  CHG  2   2   1   3  -1
M  END
> <assay_chembl_id>
CHEMBL1070379

> <assay_description>
Antiproliferative activity against human LNCAP cells after 48 hrs by ATPlite assay

> <document_journal>
Bioorg Med Chem

> <molecule_chembl_id>
CHEMBL589783

> <standard_value>
350

> <IC50_uM>
0.35

> <Activity>
Yes

> <Canonical_Smiles>
O=[N+]([O-])c1ccc(/C=C/c2ccc3cccc(O)c3n2)o1

$$$$

  SciTegic03142313312D

 31 34  0  0  0  0            999 V2000
    9.0905    0.7779    0.0000 C   0  0
    7.7876    1.5211    0.0000 C   0  0
    7.7802    3.0220    0.0000 N   0  0
    9.0751    3.7791    0.0000 O   0  0
    6.4920    0.7636    0.0000 C   0  0
    6.4972   -0.7364    0.0000 C   0  0
    5.2007   -1.4909    0.0000 C   0  0
    3.8990   -0.7455    0.0000 C   0  0
    2.6003   -1.4977    0.0000 N   0  0
    1.2990   -0.7500    0.0000 C   0  0
    1.2990    0.7500    0.0000 C   0  0
    0.0000    1.5000    0.0000 C   0  0
   -0.0031    3.0008    0.0000 C   0  0
   -1.3039    3.7494    0.0000 C   0  0
   -1.3070    5.2502    0.0000 C   0  0
   -2.5205    6.1100    0.0000 C   0  0
   -2.0570    7.5366    0.0000 C   0  0
   -0.5570    7.5366    0.0000 C   0  0
    0.3261    8.7469    0.0000 N   0  3
    1.8177    8.5880    0.0000 O   0  0
   -0.2816   10.1183    0.0000 O   0  5
   -0.0935    6.1100    0.0000 O   0  0
   -1.2990    0.7500    0.0000 N   0  0
   -1.2990   -0.7500    0.0000 C   0  0
   -2.5981   -1.5000    0.0000 C   0  0
   -2.5981   -3.0000    0.0000 C   0  0
   -1.2990   -3.7500    0.0000 C   0  0
    0.0000   -3.0000    0.0000 C   0  0
    0.0000   -1.5000    0.0000 C   0  0
    3.8939    0.7546    0.0000 C   0  0
    5.1903    1.5091    0.0000 C   0  0
  1  2  1  0
  2  3  2  0
  3  4  1  0
  2  5  1  0
  5  6  2  0
  6  7  1  0
  7  8  2  0
  8  9  1  0
  9 10  1  0
 10 11  2  0
 11 12  1  0
 12 13  1  0
 13 14  2  0
 14 15  1  0
 15 16  2  0
 16 17  1  0
 17 18  2  0
 18 19  1  0
 19 20  2  0
 19 21  1  0
 18 22  1  0
 22 15  1  0
 12 23  2  0
 23 24  1  0
 24 25  2  0
 25 26  1  0
 26 27  2  0
 27 28  1  0
 28 29  2  0
 29 10  1  0
 29 24  1  0
  8 30  1  0
 30 31  2  0
 31  5  1  0
M  CHG  2  19   1  21  -1
M  END
> <assay_chembl_id>
CHEMBL1070379

> <assay_description>
Antiproliferative activity against human LNCAP cells after 48 hrs by ATPlite assay

> <document_journal>
Bioorg Med Chem

> <molecule_chembl_id>
CHEMBL590052

> <standard_value>
950

> <IC50_uM>
0.95

> <Activity>
Yes

> <Canonical_Smiles>
C/C(=N\O)c1ccc(Nc2cc(/C=C/c3ccc([N+](=O)[O-])o3)nc3ccccc23)cc1

$$$$

  SciTegic03142313312D

 21 24  0  0  0  0            999 V2000
   -3.2611  -12.0169    0.0000 F   0  0
   -2.8778  -10.5668    0.0000 C   0  0
   -1.4302  -10.1737    0.0000 C   0  0
   -1.0468   -8.7235    0.0000 C   0  0
   -2.1081   -7.6705    0.0000 C   0  0
   -1.8348   -6.1949    0.0000 C   0  0
   -0.4810   -5.5489    0.0000 N   0  0
   -0.6928   -4.0817    0.0000 C   0  0
    0.3114   -2.9665    0.0000 C   0  0
    1.8032   -3.1233    0.0000 C   0  0
    2.4133   -1.7530    0.0000 N   0  0
    1.2990   -0.7500    0.0000 C   0  0
    1.2990    0.7500    0.0000 C   0  0
    0.0000    1.5000    0.0000 C   0  0
   -1.2990    0.7500    0.0000 C   0  0
   -1.2990   -0.7500    0.0000 C   0  0
    0.0000   -1.5000    0.0000 C   0  0
   -2.1519   -3.7886    0.0000 C   0  0
   -2.8675   -5.1069    0.0000 O   0  0
   -3.5586   -8.0595    0.0000 C   0  0
   -3.9420   -9.5097    0.0000 C   0  0
  1  2  1  0
  2  3  2  0
  3  4  1  0
  4  5  2  0
  5  6  1  0
  6  7  2  0
  7  8  1  0
  8  9  1  0
  9 10  2  0
 10 11  1  0
 11 12  1  0
 12 13  2  0
 13 14  1  0
 14 15  2  0
 15 16  1  0
 16 17  2  0
 17  9  1  0
 17 12  1  0
  8 18  2  0
 18 19  1  0
 19  6  1  0
  5 20  1  0
 20 21  2  0
 21  2  1  0
M  END
> <assay_chembl_id>
CHEMBL1107813

> <assay_description>
Cytotoxicity against human LNCAP cells after 48 hrs by MTT assay

> <document_journal>
Eur J Med Chem

> <molecule_chembl_id>
CHEMBL1088168

> <standard_value>
59800

> <IC50_uM>
59.8

> <Activity>
No

> <Canonical_Smiles>
Fc1ccc(-c2nc(-c3c[nH]c4ccccc34)co2)cc1

$$$$

  SciTegic03142313312D

 16 17  0  0  0  0            999 V2000
    3.8983   -0.7459    0.0000 C   0  0
    2.6003   -1.4977    0.0000 N   0  0
    1.2990   -0.7500    0.0000 C   0  0
    1.2990    0.7500    0.0000 C   0  0
    0.0000    1.5000    0.0000 C   0  0
    0.0000    3.0000    0.0000 O   0  0
   -1.2990    0.7500    0.0000 C   0  0
   -1.2990   -0.7500    0.0000 C   0  0
   -2.5981   -1.5000    0.0000 C   0  0
   -3.8971   -0.7500    0.0000 N   0  0
   -3.8971    0.7500    0.0000 C   0  0
   -5.1962    1.5000    0.0000 C   0  0
   -2.5981    1.5000    0.0000 C   0  0
   -2.5981    3.0000    0.0000 C   0  0
    0.0000   -1.5000    0.0000 C   0  0
    0.0000   -3.0000    0.0000 O   0  0
  1  2  1  0
  2  3  1  0
  3  4  2  0
  4  5  1  0
  5  6  2  0
  5  7  1  0
  7  8  2  0
  8  9  1  0
  9 10  2  0
 10 11  1  0
 11 12  1  0
 11 13  2  0
 13  7  1  0
 13 14  1  0
  8 15  1  0
 15  3  1  0
 15 16  2  0
M  END
> <assay_chembl_id>
CHEMBL1110245

> <assay_description>
Cytotoxicity against human LNCAP cells after 4 days by propidium iodide assay

> <document_journal>
J Nat Prod

> <molecule_chembl_id>
CHEMBL1079851

> <standard_value>
21670

> <IC50_uM>
21.67

> <Activity>
No

> <Canonical_Smiles>
CNC1=CC(=O)c2c(cnc(C)c2C)C1=O

$$$$

  SciTegic03142313312D

 35 35  0  0  1  0            999 V2000
    1.6317   -2.2458    0.0000 C   0  0
    0.7500   -1.0323    0.0000 C   0  0
    1.2135    0.3943    0.0000 O   0  0
    0.0000    1.2760    0.0000 C   0  0
    0.0000    2.7760    0.0000 O   0  0
   -1.2135    0.3943    0.0000 C   0  0
   -2.6394    0.8543    0.0000 C   0  0
   -3.7533   -0.1515    0.0000 C   0  0
   -5.1816    0.3093    0.0000 C   0  0
   -6.2955   -0.6966    0.0000 C   0  0
   -7.7238   -0.2358    0.0000 C   0  0
   -8.8377   -1.2416    0.0000 C   0  0
  -10.2660   -0.7808    0.0000 C   0  0
  -11.3799   -1.7867    0.0000 C   0  0
  -12.8082   -1.3259    0.0000 C   0  0
  -13.9221   -2.3317    0.0000 C   0  0
  -15.3504   -1.8709    0.0000 C   0  0
  -16.4643   -2.8768    0.0000 C   0  0
  -17.8927   -2.4160    0.0000 C   0  0
  -19.0065   -3.4218    0.0000 C   0  0
  -20.4349   -2.9610    0.0000 C   0  0
  -21.5487   -3.9669    0.0000 C   0  0
  -22.9771   -3.5061    0.0000 C   0  0
  -24.0909   -4.5119    0.0000 C   0  0
  -25.5193   -4.0511    0.0000 C   0  0
  -26.6332   -5.0570    0.0000 C   0  0
  -28.0615   -4.5962    0.0000 C   0  0
  -29.1754   -5.6020    0.0000 C   0  0
  -30.6037   -5.1412    0.0000 C   0  0
  -31.7176   -6.1471    0.0000 C   0  0
  -33.1459   -5.6863    0.0000 C   0  0
  -34.2598   -6.6921    0.0000 C   0  0
  -35.6873   -6.2316    0.0000 C   0  0
   -0.7500   -1.0323    0.0000 C   0  0  2  0  0  0
   -1.6317   -2.2458    0.0000 O   0  0
  1  2  2  0
  2  3  1  0
  3  4  1  0
  4  5  2  0
  4  6  1  0
  6  7  2  0
  7  8  1  0
  8  9  1  0
  9 10  1  0
 10 11  1  0
 11 12  1  0
 12 13  1  0
 13 14  1  0
 14 15  1  0
 15 16  1  0
 16 17  1  0
 17 18  1  0
 18 19  1  0
 19 20  1  0
 20 21  1  0
 21 22  1  0
 22 23  1  0
 23 24  1  0
 24 25  1  0
 25 26  1  0
 26 27  1  0
 27 28  1  0
 28 29  1  0
 29 30  1  0
 30 31  1  0
 31 32  1  0
 32 33  1  0
  6 34  1  0
 34  2  1  0
 34 35  1  1
M  END
> <assay_chembl_id>
CHEMBL1102406

> <assay_description>
Cytotoxicity against human LNCAP cells after 72 hrs by XTT assay

> <document_journal>
J Nat Prod

> <molecule_chembl_id>
CHEMBL1077858

> <standard_value>
42700

> <IC50_uM>
42.7

> <Activity>
No

> <Canonical_Smiles>
C=C1OC(=O)/C(=C/CCCCCCCCCCCCCCCCCCCCCCCCCC)[C@@H]1O

$$$$

  SciTegic03142313312D

 29 29  0  0  0  0            999 V2000
    1.6317   -2.2458    0.0000 C   0  0
    0.7500   -1.0323    0.0000 C   0  0
    1.2135    0.3943    0.0000 C   0  0
    0.0000    1.2760    0.0000 C   0  0
    0.0031    2.7742    0.0000 C   0  0  3  0  0  0
    1.3039    3.5228    0.0000 C   0  0
    1.3070    5.0236    0.0000 C   0  0
    2.6079    5.7721    0.0000 C   0  0
    2.6110    7.2730    0.0000 C   0  0
    3.9118    8.0215    0.0000 C   0  0
    3.9149    9.5223    0.0000 C   0  0
    5.2157   10.2709    0.0000 C   0  0
    5.2188   11.7717    0.0000 C   0  0
    6.5197   12.5202    0.0000 C   0  0
    6.5228   14.0211    0.0000 C   0  0
    7.8236   14.7696    0.0000 C   0  0
    7.8267   16.2704    0.0000 C   0  0
    9.1276   17.0190    0.0000 C   0  0
    9.1307   18.5198    0.0000 C   0  0
   10.4315   19.2683    0.0000 C   0  0
   10.4346   20.7691    0.0000 C   0  0
   11.7354   21.5177    0.0000 C   0  0
   11.7385   23.0185    0.0000 C   0  0
   13.0386   23.7666    0.0000 C   0  0
   -1.2938    3.5296    0.0000 O   0  0
   -1.2890    5.0296    0.0000 C   0  0
   -1.2135    0.3943    0.0000 C   0  0
   -2.6401    0.8578    0.0000 O   0  0
   -0.7500   -1.0323    0.0000 O   0  0
  1  2  2  0
  2  3  1  0
  3  4  2  0
  4  5  1  0
  5  6  1  4
  6  7  1  0
  7  8  1  0
  8  9  1  0
  9 10  1  0
 10 11  1  0
 11 12  1  0
 12 13  1  0
 13 14  1  0
 14 15  1  0
 15 16  1  0
 16 17  1  0
 17 18  1  0
 18 19  1  0
 19 20  1  0
 20 21  1  0
 21 22  1  0
 22 23  1  0
 23 24  1  0
  5 25  1  0
 25 26  1  0
  4 27  1  0
 27 28  2  0
 27 29  1  0
 29  2  1  0
M  END
> <assay_chembl_id>
CHEMBL1102406

> <assay_description>
Cytotoxicity against human LNCAP cells after 72 hrs by XTT assay

> <document_journal>
J Nat Prod

> <molecule_chembl_id>
CHEMBL1078157

> <standard_value>
22200

> <IC50_uM>
22.2

> <Activity>
No

> <Canonical_Smiles>
C=C1C=C(C(CCCCCCCCCCCCCCCCCCC)OC)C(=O)O1

$$$$

  SciTegic03142313312D

 22 22  0  0  1  0            999 V2000
    1.6317   -2.2458    0.0000 C   0  0
    0.7500   -1.0323    0.0000 C   0  0
    1.2135    0.3943    0.0000 O   0  0
    0.0000    1.2760    0.0000 C   0  0
    0.0000    2.7760    0.0000 O   0  0
   -1.2135    0.3943    0.0000 C   0  0
   -2.6394    0.8543    0.0000 C   0  0
   -2.9554    2.3215    0.0000 C   0  0
   -4.3838    2.7823    0.0000 C   0  0
   -4.6998    4.2495    0.0000 C   0  0
   -6.1281    4.7103    0.0000 C   0  0
   -6.4442    6.1774    0.0000 C   0  0
   -7.8725    6.6382    0.0000 C   0  0
   -8.1885    8.1054    0.0000 C   0  0
   -9.6169    8.5662    0.0000 C   0  0
   -9.9329   10.0334    0.0000 C   0  0
  -11.3612   10.4942    0.0000 C   0  0
  -11.6773   11.9614    0.0000 C   0  0
  -13.1056   12.4222    0.0000 C   0  0
  -13.4214   13.8885    0.0000 C   0  0
   -0.7500   -1.0323    0.0000 C   0  0  2  0  0  0
   -1.6317   -2.2458    0.0000 O   0  0
  1  2  2  0
  2  3  1  0
  3  4  1  0
  4  5  2  0
  4  6  1  0
  6  7  2  0
  7  8  1  0
  8  9  1  0
  9 10  1  0
 10 11  1  0
 11 12  1  0
 12 13  1  0
 13 14  1  0
 14 15  1  0
 15 16  1  0
 16 17  1  0
 17 18  1  0
 18 19  1  0
 19 20  1  0
  6 21  1  0
 21  2  1  0
 21 22  1  1
M  END
> <assay_chembl_id>
CHEMBL1102406

> <assay_description>
Cytotoxicity against human LNCAP cells after 72 hrs by XTT assay

> <document_journal>
J Nat Prod

> <molecule_chembl_id>
CHEMBL490165

> <standard_value>
36400

> <IC50_uM>
36.4

> <Activity>
No

> <Canonical_Smiles>
C=C1OC(=O)/C(=C\CCCCCCCCCCCCC)[C@@H]1O

$$$$

  SciTegic03142313312D

 18 20  0  0  1  0            999 V2000
   -0.7695   -3.0287    0.0000 C   0  0
   -0.6889   -1.5309    0.0000 C   0  0
   -1.9461   -0.7126    0.0000 C   0  0
    0.6500   -0.8500    0.0000 C   0  0
    1.8700   -1.7500    0.0000 C   0  0
    3.3500   -1.4000    0.0000 C   0  0
    4.3015   -2.5596    0.0000 O   0  0
    3.9900    0.0000    0.0000 C   0  0  2  0  0  0
    2.4912   -0.0592    0.0000 C   0  0
    2.1300   -0.7100    0.0000 O   0  0
    0.6500    0.6700    0.0000 C   0  0  2  0  0  0
    0.5114    2.1636    0.0000 O   0  0
    1.7700    1.6300    0.0000 C   0  0  2  0  0  0
    1.5900    3.1200    0.0000 C   0  0  2  0  0  0
    0.2669    3.8266    0.0000 C   0  0
    2.9500    3.8100    0.0000 C   0  0
    4.0100    2.6800    0.0000 C   0  0
    3.2500    1.3300    0.0000 C   0  0  2  0  0  0
  1  2  1  0
  2  3  1  0
  2  4  1  0
  4  5  2  0
  5  6  1  0
  6  7  2  0
  6  8  1  0
  8  9  1  1
  8 10  1  0
 10 11  1  0
 11  4  1  0
 11 12  1  1
 13 11  1  6
 13 14  1  0
 14 15  1  6
 14 16  1  0
 16 17  1  0
 18 17  1  6
 18 13  1  0
 18  8  1  0
M  END
> <assay_chembl_id>
CHEMBL1102406

> <assay_description>
Cytotoxicity against human LNCAP cells after 72 hrs by XTT assay

> <document_journal>
J Nat Prod

> <molecule_chembl_id>
CHEMBL1077895

> <standard_value>
67100

> <IC50_uM>
67.1

> <Activity>
No

> <Canonical_Smiles>
CC(C)C1=CC(=O)[C@]2(C)O[C@@]1(O)[C@@H]1[C@H](C)CC[C@@H]12

$$$$

  SciTegic03142313312D

 45 52  0  0  0  0            999 V2000
  -11.7054   19.7019    0.0000 C   0  0
  -11.5339   18.2117    0.0000 N   0  0
  -12.7387   17.3181    0.0000 C   0  0
  -12.5672   15.8280    0.0000 C   0  0
  -11.1909   15.2313    0.0000 N   0  0
  -11.0169   13.7407    0.0000 C   0  0
  -12.2203   12.8451    0.0000 C   0  0
  -12.0464   11.3553    0.0000 C   0  0
  -10.6692   10.7608    0.0000 C   0  0
  -10.4922    9.2704    0.0000 N   0  0
   -9.1134    8.6777    0.0000 C   0  0
   -7.9116    9.5752    0.0000 O   0  0
   -8.9364    7.1873    0.0000 N   0  0
   -7.5576    6.5945    0.0000 C   0  0
   -7.3786    5.1053    0.0000 C   0  0
   -5.9993    4.5157    0.0000 C   0  0
   -4.7990    5.4153    0.0000 C   0  0
   -3.4181    4.8276    0.0000 C   0  0
   -3.2367    3.3386    0.0000 N   0  0
   -1.8781    2.7579    0.0000 C   0  0
   -1.0947    1.4779    0.0000 N   0  0
    0.0000    0.6568    0.0000 C   0  0  3  0  0  0
   -0.6568   -0.6386    0.0000 C   0  0
   -1.8063   -1.3319    0.0000 C   0  0
   -0.8393    0.0000    0.0000 C   0  0  3  0  0  0
    0.9488    0.0000    0.0000 C   0  0
    1.8975   -0.8028    0.0000 O   0  0
    1.6421    0.6933    0.0000 C   0  0
   -0.6577    3.6528    0.0000 N   0  0
   -0.8391    5.1417    0.0000 C   0  0
    0.3603    6.0438    0.0000 N   0  0
    1.6012    6.3621    0.0000 C   0  0  3  0  0  0
    1.4430    7.8059    0.0000 C   0  0
    0.6116    8.8598    0.0000 C   0  0
    1.0472    7.2725    0.0000 C   0  0  3  0  0  0
    2.7206    6.6425    0.0000 C   0  0
    3.8914    7.0594    0.0000 O   0  0
    3.1251    5.7493    0.0000 C   0  0
   -2.2193    5.7292    0.0000 N   0  0
   -4.9781    6.9046    0.0000 C   0  0
   -6.3574    7.4942    0.0000 C   0  0
   -9.4659   11.6564    0.0000 C   0  0
   -9.6397   13.1463    0.0000 C   0  0
   -9.9861   16.1250    0.0000 C   0  0
  -10.1576   17.6152    0.0000 C   0  0
  1  2  1  0
  2  3  1  0
  3  4  1  0
  4  5  1  0
  5  6  1  0
  6  7  2  0
  7  8  1  0
  8  9  2  0
  9 10  1  0
 10 11  1  0
 11 12  2  0
 11 13  1  0
 13 14  1  0
 14 15  2  0
 15 16  1  0
 16 17  2  0
 17 18  1  0
 18 19  2  0
 19 20  1  0
 20 21  1  0
 21 22  1  0
 22 23  1  4
 23 24  1  0
 25 24  1  4
 25 21  1  0
 25 26  1  0
 26 27  1  0
 27 28  1  0
 28 22  1  0
 20 29  2  0
 29 30  1  0
 30 31  1  0
 31 32  1  0
 32 33  1  4
 33 34  1  0
 35 34  1  4
 35 31  1  0
 35 36  1  0
 36 37  1  0
 37 38  1  0
 38 32  1  0
 30 39  2  0
 39 18  1  0
 17 40  1  0
 40 41  2  0
 41 14  1  0
  9 42  1  0
 42 43  2  0
 43  6  1  0
  5 44  1  0
 44 45  1  0
 45  2  1  0
M  END
> <assay_chembl_id>
CHEMBL1108790

> <assay_description>
Antiproliferative activity against human LNCAP cells

> <document_journal>
Bioorg Med Chem Lett

> <molecule_chembl_id>
CHEMBL1088973

> <standard_value>
1.3

> <IC50_uM>
0.0013

> <Activity>
Yes

> <Canonical_Smiles>
CN1CCN(c2ccc(NC(=O)Nc3ccc(-c4nc(N5C6CCC5COC6)nc(N5C6CCC5COC6)n4)cc3)cc2)CC1

$$$$

  SciTegic03142313312D

 46 53  0  0  0  0            999 V2000
   -6.3631   18.8001    0.0000 C   0  0
   -7.5696   17.9088    0.0000 N   0  0
   -8.9447   18.5079    0.0000 C   0  0
  -10.1512   17.6165    0.0000 C   0  0
   -9.9825   16.1260    0.0000 N   0  0
  -11.1878   15.2317    0.0000 C   0  0
  -11.0169   13.7407    0.0000 C   0  0
  -12.2203   12.8451    0.0000 C   0  0
  -12.0464   11.3553    0.0000 C   0  0
  -10.6692   10.7608    0.0000 C   0  0
  -10.4922    9.2704    0.0000 N   0  0
   -9.1134    8.6777    0.0000 C   0  0
   -7.9116    9.5752    0.0000 O   0  0
   -8.9364    7.1873    0.0000 N   0  0
   -7.5576    6.5945    0.0000 C   0  0
   -7.3786    5.1053    0.0000 C   0  0
   -5.9993    4.5157    0.0000 C   0  0
   -4.7990    5.4153    0.0000 C   0  0
   -3.4181    4.8276    0.0000 C   0  0
   -3.2367    3.3386    0.0000 N   0  0
   -1.8781    2.7579    0.0000 C   0  0
   -1.0947    1.4779    0.0000 N   0  0
    0.0000    0.6568    0.0000 C   0  0  3  0  0  0
   -0.6568   -0.6386    0.0000 C   0  0
   -1.8063   -1.3319    0.0000 C   0  0
   -0.8393    0.0000    0.0000 C   0  0  3  0  0  0
    0.9488    0.0000    0.0000 C   0  0
    1.8975   -0.8028    0.0000 O   0  0
    1.6421    0.6933    0.0000 C   0  0
   -0.6577    3.6528    0.0000 N   0  0
   -0.8391    5.1417    0.0000 C   0  0
    0.3603    6.0438    0.0000 N   0  0
    1.6012    6.3621    0.0000 C   0  0  3  0  0  0
    1.4430    7.8059    0.0000 C   0  0
    0.6116    8.8598    0.0000 C   0  0
    1.0472    7.2725    0.0000 C   0  0  3  0  0  0
    2.7206    6.6425    0.0000 C   0  0
    3.8914    7.0594    0.0000 O   0  0
    3.1251    5.7493    0.0000 C   0  0
   -2.2193    5.7292    0.0000 N   0  0
   -4.9781    6.9046    0.0000 C   0  0
   -6.3574    7.4942    0.0000 C   0  0
   -9.4659   11.6564    0.0000 C   0  0
   -9.6397   13.1463    0.0000 C   0  0
   -8.6073   15.5269    0.0000 C   0  0
   -7.4009   16.4183    0.0000 C   0  0
  1  2  1  0
  2  3  1  0
  3  4  1  0
  4  5  1  0
  5  6  1  0
  6  7  1  0
  7  8  2  0
  8  9  1  0
  9 10  2  0
 10 11  1  0
 11 12  1  0
 12 13  2  0
 12 14  1  0
 14 15  1  0
 15 16  2  0
 16 17  1  0
 17 18  2  0
 18 19  1  0
 19 20  2  0
 20 21  1  0
 21 22  1  0
 22 23  1  0
 23 24  1  4
 24 25  1  0
 26 25  1  4
 26 22  1  0
 26 27  1  0
 27 28  1  0
 28 29  1  0
 29 23  1  0
 21 30  2  0
 30 31  1  0
 31 32  1  0
 32 33  1  0
 33 34  1  4
 34 35  1  0
 36 35  1  4
 36 32  1  0
 36 37  1  0
 37 38  1  0
 38 39  1  0
 39 33  1  0
 31 40  2  0
 40 19  1  0
 18 41  1  0
 41 42  2  0
 42 15  1  0
 10 43  1  0
 43 44  2  0
 44  7  1  0
  5 45  1  0
 45 46  1  0
 46  2  1  0
M  END
> <assay_chembl_id>
CHEMBL1108790

> <assay_description>
Antiproliferative activity against human LNCAP cells

> <document_journal>
Bioorg Med Chem Lett

> <molecule_chembl_id>
CHEMBL1092392

> <standard_value>
4

> <IC50_uM>
0.004

> <Activity>
Yes

> <Canonical_Smiles>
CN1CCN(Cc2ccc(NC(=O)Nc3ccc(-c4nc(N5C6CCC5COC6)nc(N5C6CCC5COC6)n4)cc3)cc2)CC1

$$$$

  SciTegic03142313312D

 42 48  0  0  0  0            999 V2000
  -10.1533   17.6163    0.0000 C   0  0
   -9.9825   16.1260    0.0000 N   0  0
   -8.6064   15.5293    0.0000 C   0  0
  -11.1878   15.2317    0.0000 C   0  0
  -11.0169   13.7407    0.0000 C   0  0
  -12.2203   12.8451    0.0000 C   0  0
  -12.0464   11.3553    0.0000 C   0  0
  -10.6692   10.7608    0.0000 C   0  0
  -10.4922    9.2704    0.0000 N   0  0
   -9.1134    8.6777    0.0000 C   0  0
   -7.9116    9.5752    0.0000 O   0  0
   -8.9364    7.1873    0.0000 N   0  0
   -7.5576    6.5945    0.0000 C   0  0
   -7.3786    5.1053    0.0000 C   0  0
   -5.9993    4.5157    0.0000 C   0  0
   -4.7990    5.4153    0.0000 C   0  0
   -3.4181    4.8276    0.0000 C   0  0
   -3.2367    3.3386    0.0000 N   0  0
   -1.8781    2.7579    0.0000 C   0  0
   -1.0947    1.4779    0.0000 N   0  0
    0.0000    0.6568    0.0000 C   0  0  3  0  0  0
   -0.6568   -0.6386    0.0000 C   0  0
   -1.8063   -1.3319    0.0000 C   0  0
   -0.8393    0.0000    0.0000 C   0  0  3  0  0  0
    0.9488    0.0000    0.0000 C   0  0
    1.8975   -0.8028    0.0000 O   0  0
    1.6421    0.6933    0.0000 C   0  0
   -0.6577    3.6528    0.0000 N   0  0
   -0.8391    5.1417    0.0000 C   0  0
    0.3603    6.0438    0.0000 N   0  0
    1.6012    6.3621    0.0000 C   0  0  3  0  0  0
    1.4430    7.8059    0.0000 C   0  0
    0.6116    8.8598    0.0000 C   0  0
    1.0472    7.2725    0.0000 C   0  0  3  0  0  0
    2.7206    6.6425    0.0000 C   0  0
    3.8914    7.0594    0.0000 O   0  0
    3.1251    5.7493    0.0000 C   0  0
   -2.2193    5.7292    0.0000 N   0  0
   -4.9781    6.9046    0.0000 C   0  0
   -6.3574    7.4942    0.0000 C   0  0
   -9.4659   11.6564    0.0000 C   0  0
   -9.6397   13.1463    0.0000 C   0  0
  1  2  1  0
  2  3  1  0
  2  4  1  0
  4  5  1  0
  5  6  2  0
  6  7  1  0
  7  8  2  0
  8  9  1  0
  9 10  1  0
 10 11  2  0
 10 12  1  0
 12 13  1  0
 13 14  2  0
 14 15  1  0
 15 16  2  0
 16 17  1  0
 17 18  2  0
 18 19  1  0
 19 20  1  0
 20 21  1  0
 21 22  1  4
 22 23  1  0
 24 23  1  4
 24 20  1  0
 24 25  1  0
 25 26  1  0
 26 27  1  0
 27 21  1  0
 19 28  2  0
 28 29  1  0
 29 30  1  0
 30 31  1  0
 31 32  1  4
 32 33  1  0
 34 33  1  4
 34 30  1  0
 34 35  1  0
 35 36  1  0
 36 37  1  0
 37 31  1  0
 29 38  2  0
 38 17  1  0
 16 39  1  0
 39 40  2  0
 40 13  1  0
  8 41  1  0
 41 42  2  0
 42  5  1  0
M  END
> <assay_chembl_id>
CHEMBL1108790

> <assay_description>
Antiproliferative activity against human LNCAP cells

> <document_journal>
Bioorg Med Chem Lett

> <molecule_chembl_id>
CHEMBL1092393

> <standard_value>
5

> <IC50_uM>
0.005

> <Activity>
Yes

> <Canonical_Smiles>
CN(C)Cc1ccc(NC(=O)Nc2ccc(-c3nc(N4C5CCC4COC5)nc(N4C5CCC4COC5)n3)cc2)cc1

$$$$

  SciTegic03142313312D

 41 47  0  0  0  0            999 V2000
  -10.1533   17.6163    0.0000 C   0  0
   -9.9825   16.1260    0.0000 N   0  0
  -11.1878   15.2317    0.0000 C   0  0
  -11.0169   13.7407    0.0000 C   0  0
  -12.2203   12.8451    0.0000 C   0  0
  -12.0464   11.3553    0.0000 C   0  0
  -10.6692   10.7608    0.0000 C   0  0
  -10.4922    9.2704    0.0000 N   0  0
   -9.1134    8.6777    0.0000 C   0  0
   -7.9116    9.5752    0.0000 O   0  0
   -8.9364    7.1873    0.0000 N   0  0
   -7.5576    6.5945    0.0000 C   0  0
   -7.3786    5.1053    0.0000 C   0  0
   -5.9993    4.5157    0.0000 C   0  0
   -4.7990    5.4153    0.0000 C   0  0
   -3.4181    4.8276    0.0000 C   0  0
   -3.2367    3.3386    0.0000 N   0  0
   -1.8781    2.7579    0.0000 C   0  0
   -1.0947    1.4779    0.0000 N   0  0
    0.0000    0.6568    0.0000 C   0  0  3  0  0  0
   -0.6568   -0.6386    0.0000 C   0  0
   -1.8063   -1.3319    0.0000 C   0  0
   -0.8393    0.0000    0.0000 C   0  0  3  0  0  0
    0.9488    0.0000    0.0000 C   0  0
    1.8975   -0.8028    0.0000 O   0  0
    1.6421    0.6933    0.0000 C   0  0
   -0.6577    3.6528    0.0000 N   0  0
   -0.8391    5.1417    0.0000 C   0  0
    0.3603    6.0438    0.0000 N   0  0
    1.6012    6.3621    0.0000 C   0  0  3  0  0  0
    1.4430    7.8059    0.0000 C   0  0
    0.6116    8.8598    0.0000 C   0  0
    1.0472    7.2725    0.0000 C   0  0  3  0  0  0
    2.7206    6.6425    0.0000 C   0  0
    3.8914    7.0594    0.0000 O   0  0
    3.1251    5.7493    0.0000 C   0  0
   -2.2193    5.7292    0.0000 N   0  0
   -4.9781    6.9046    0.0000 C   0  0
   -6.3574    7.4942    0.0000 C   0  0
   -9.4659   11.6564    0.0000 C   0  0
   -9.6397   13.1463    0.0000 C   0  0
  1  2  1  0
  2  3  1  0
  3  4  1  0
  4  5  2  0
  5  6  1  0
  6  7  2  0
  7  8  1  0
  8  9  1  0
  9 10  2  0
  9 11  1  0
 11 12  1  0
 12 13  2  0
 13 14  1  0
 14 15  2  0
 15 16  1  0
 16 17  2  0
 17 18  1  0
 18 19  1  0
 19 20  1  0
 20 21  1  4
 21 22  1  0
 23 22  1  4
 23 19  1  0
 23 24  1  0
 24 25  1  0
 25 26  1  0
 26 20  1  0
 18 27  2  0
 27 28  1  0
 28 29  1  0
 29 30  1  0
 30 31  1  4
 31 32  1  0
 33 32  1  4
 33 29  1  0
 33 34  1  0
 34 35  1  0
 35 36  1  0
 36 30  1  0
 28 37  2  0
 37 16  1  0
 15 38  1  0
 38 39  2  0
 39 12  1  0
  7 40  1  0
 40 41  2  0
 41  4  1  0
M  END
> <assay_chembl_id>
CHEMBL1108790

> <assay_description>
Antiproliferative activity against human LNCAP cells

> <document_journal>
Bioorg Med Chem Lett

> <molecule_chembl_id>
CHEMBL1092394

> <standard_value>
3

> <IC50_uM>
0.003

> <Activity>
Yes

> <Canonical_Smiles>
CNCc1ccc(NC(=O)Nc2ccc(-c3nc(N4C5CCC4COC5)nc(N4C5CCC4COC5)n3)cc2)cc1

$$$$

  SciTegic03142313312D

 44 50  0  0  0  0            999 V2000
   -9.1189   20.0016    0.0000 C   0  0
   -8.9481   18.5114    0.0000 N   0  0
   -7.5720   17.9146    0.0000 C   0  0
  -10.1534   17.6171    0.0000 C   0  0
   -9.9825   16.1260    0.0000 C   0  0
  -11.1878   15.2317    0.0000 O   0  0
  -11.0169   13.7407    0.0000 C   0  0
  -12.2203   12.8451    0.0000 C   0  0
  -12.0464   11.3553    0.0000 C   0  0
  -10.6692   10.7608    0.0000 C   0  0
  -10.4922    9.2704    0.0000 N   0  0
   -9.1134    8.6777    0.0000 C   0  0
   -7.9116    9.5752    0.0000 O   0  0
   -8.9364    7.1873    0.0000 N   0  0
   -7.5576    6.5945    0.0000 C   0  0
   -7.3786    5.1053    0.0000 C   0  0
   -5.9993    4.5157    0.0000 C   0  0
   -4.7990    5.4153    0.0000 C   0  0
   -3.4181    4.8276    0.0000 C   0  0
   -3.2367    3.3386    0.0000 N   0  0
   -1.8781    2.7579    0.0000 C   0  0
   -1.0947    1.4779    0.0000 N   0  0
    0.0000    0.6568    0.0000 C   0  0  3  0  0  0
   -0.6568   -0.6386    0.0000 C   0  0
   -1.8063   -1.3319    0.0000 C   0  0
   -0.8393    0.0000    0.0000 C   0  0  3  0  0  0
    0.9488    0.0000    0.0000 C   0  0
    1.8975   -0.8028    0.0000 O   0  0
    1.6421    0.6933    0.0000 C   0  0
   -0.6577    3.6528    0.0000 N   0  0
   -0.8391    5.1417    0.0000 C   0  0
    0.3603    6.0438    0.0000 N   0  0
    1.6012    6.3621    0.0000 C   0  0  3  0  0  0
    1.4430    7.8059    0.0000 C   0  0
    0.6116    8.8598    0.0000 C   0  0
    1.0472    7.2725    0.0000 C   0  0  3  0  0  0
    2.7206    6.6425    0.0000 C   0  0
    3.8914    7.0594    0.0000 O   0  0
    3.1251    5.7493    0.0000 C   0  0
   -2.2193    5.7292    0.0000 N   0  0
   -4.9781    6.9046    0.0000 C   0  0
   -6.3574    7.4942    0.0000 C   0  0
   -9.4659   11.6564    0.0000 C   0  0
   -9.6397   13.1463    0.0000 C   0  0
  1  2  1  0
  2  3  1  0
  2  4  1  0
  4  5  1  0
  5  6  1  0
  6  7  1  0
  7  8  2  0
  8  9  1  0
  9 10  2  0
 10 11  1  0
 11 12  1  0
 12 13  2  0
 12 14  1  0
 14 15  1  0
 15 16  2  0
 16 17  1  0
 17 18  2  0
 18 19  1  0
 19 20  2  0
 20 21  1  0
 21 22  1  0
 22 23  1  0
 23 24  1  4
 24 25  1  0
 26 25  1  4
 26 22  1  0
 26 27  1  0
 27 28  1  0
 28 29  1  0
 29 23  1  0
 21 30  2  0
 30 31  1  0
 31 32  1  0
 32 33  1  0
 33 34  1  4
 34 35  1  0
 36 35  1  4
 36 32  1  0
 36 37  1  0
 37 38  1  0
 38 39  1  0
 39 33  1  0
 31 40  2  0
 40 19  1  0
 18 41  1  0
 41 42  2  0
 42 15  1  0
 10 43  1  0
 43 44  2  0
 44  7  1  0
M  END
> <assay_chembl_id>
CHEMBL1108790

> <assay_description>
Antiproliferative activity against human LNCAP cells

> <document_journal>
Bioorg Med Chem Lett

> <molecule_chembl_id>
CHEMBL1092395

> <standard_value>
3

> <IC50_uM>
0.003

> <Activity>
Yes

> <Canonical_Smiles>
CN(C)CCOc1ccc(NC(=O)Nc2ccc(-c3nc(N4C5CCC4COC5)nc(N4C5CCC4COC5)n3)cc2)cc1

$$$$

  SciTegic03142313312D

 48 55  0  0  0  0            999 V2000
   -5.3287   21.1855    0.0000 C   0  0
   -6.5352   20.2941    0.0000 N   0  0
   -7.9103   20.8933    0.0000 C   0  0
   -9.1168   20.0019    0.0000 C   0  0
   -8.9481   18.5114    0.0000 N   0  0
  -10.1534   17.6171    0.0000 C   0  0
   -9.9825   16.1260    0.0000 C   0  0
  -11.1878   15.2317    0.0000 O   0  0
  -11.0169   13.7407    0.0000 C   0  0
  -12.2203   12.8451    0.0000 C   0  0
  -12.0464   11.3553    0.0000 C   0  0
  -10.6692   10.7608    0.0000 C   0  0
  -10.4922    9.2704    0.0000 N   0  0
   -9.1134    8.6777    0.0000 C   0  0
   -7.9116    9.5752    0.0000 O   0  0
   -8.9364    7.1873    0.0000 N   0  0
   -7.5576    6.5945    0.0000 C   0  0
   -7.3786    5.1053    0.0000 C   0  0
   -5.9993    4.5157    0.0000 C   0  0
   -4.7990    5.4153    0.0000 C   0  0
   -3.4181    4.8276    0.0000 C   0  0
   -3.2367    3.3386    0.0000 N   0  0
   -1.8781    2.7579    0.0000 C   0  0
   -1.0947    1.4779    0.0000 N   0  0
    0.0000    0.6568    0.0000 C   0  0  3  0  0  0
   -0.6568   -0.6386    0.0000 C   0  0
   -1.8063   -1.3319    0.0000 C   0  0
   -0.8393    0.0000    0.0000 C   0  0  3  0  0  0
    0.9488    0.0000    0.0000 C   0  0
    1.8975   -0.8028    0.0000 O   0  0
    1.6421    0.6933    0.0000 C   0  0
   -0.6577    3.6528    0.0000 N   0  0
   -0.8391    5.1417    0.0000 C   0  0
    0.3603    6.0438    0.0000 N   0  0
    1.6012    6.3621    0.0000 C   0  0  3  0  0  0
    1.4430    7.8059    0.0000 C   0  0
    0.6116    8.8598    0.0000 C   0  0
    1.0472    7.2725    0.0000 C   0  0  3  0  0  0
    2.7206    6.6425    0.0000 C   0  0
    3.8914    7.0594    0.0000 O   0  0
    3.1251    5.7493    0.0000 C   0  0
   -2.2193    5.7292    0.0000 N   0  0
   -4.9781    6.9046    0.0000 C   0  0
   -6.3574    7.4942    0.0000 C   0  0
   -9.4659   11.6564    0.0000 C   0  0
   -9.6397   13.1463    0.0000 C   0  0
   -7.5729   17.9123    0.0000 C   0  0
   -6.3665   18.8036    0.0000 C   0  0
  1  2  1  0
  2  3  1  0
  3  4  1  0
  4  5  1  0
  5  6  1  0
  6  7  1  0
  7  8  1  0
  8  9  1  0
  9 10  2  0
 10 11  1  0
 11 12  2  0
 12 13  1  0
 13 14  1  0
 14 15  2  0
 14 16  1  0
 16 17  1  0
 17 18  2  0
 18 19  1  0
 19 20  2  0
 20 21  1  0
 21 22  2  0
 22 23  1  0
 23 24  1  0
 24 25  1  0
 25 26  1  4
 26 27  1  0
 28 27  1  4
 28 24  1  0
 28 29  1  0
 29 30  1  0
 30 31  1  0
 31 25  1  0
 23 32  2  0
 32 33  1  0
 33 34  1  0
 34 35  1  0
 35 36  1  4
 36 37  1  0
 38 37  1  4
 38 34  1  0
 38 39  1  0
 39 40  1  0
 40 41  1  0
 41 35  1  0
 33 42  2  0
 42 21  1  0
 20 43  1  0
 43 44  2  0
 44 17  1  0
 12 45  1  0
 45 46  2  0
 46  9  1  0
  5 47  1  0
 47 48  1  0
 48  2  1  0
M  END
> <assay_chembl_id>
CHEMBL1108790

> <assay_description>
Antiproliferative activity against human LNCAP cells

> <document_journal>
Bioorg Med Chem Lett

> <molecule_chembl_id>
CHEMBL1092396

> <standard_value>
0.8

> <IC50_uM>
0.0008

> <Activity>
Yes

> <Canonical_Smiles>
CN1CCN(CCOc2ccc(NC(=O)Nc3ccc(-c4nc(N5C6CCC5COC6)nc(N5C6CCC5COC6)n4)cc3)cc2)CC1

$$$$

  SciTegic03142313312D

 46 53  0  0  0  0            999 V2000
   -7.9116    9.5752    0.0000 O   0  0
   -9.1134    8.6777    0.0000 C   0  0
  -10.4922    9.2704    0.0000 N   0  0
  -10.6692   10.7608    0.0000 C   0  0
  -12.0464   11.3553    0.0000 C   0  0
  -12.2203   12.8451    0.0000 C   0  0
  -11.0169   13.7407    0.0000 C   0  0
  -11.1878   15.2317    0.0000 O   0  0
   -9.9825   16.1260    0.0000 C   0  0
  -10.1534   17.6171    0.0000 C   0  0
   -8.9481   18.5114    0.0000 N   0  0
   -8.9777   19.9983    0.0000 C   0  0
   -7.5548   20.4732    0.0000 C   0  0
   -6.6635   19.2668    0.0000 C   0  0
   -7.5355   18.0462    0.0000 C   0  0
   -9.6397   13.1463    0.0000 C   0  0
   -9.4659   11.6564    0.0000 C   0  0
   -8.9364    7.1873    0.0000 N   0  0
   -7.5576    6.5945    0.0000 C   0  0
   -7.3786    5.1053    0.0000 C   0  0
   -5.9993    4.5157    0.0000 C   0  0
   -4.7990    5.4153    0.0000 C   0  0
   -3.4181    4.8276    0.0000 C   0  0
   -3.2367    3.3386    0.0000 N   0  0
   -1.8781    2.7579    0.0000 C   0  0
   -1.0947    1.4779    0.0000 N   0  0
    0.0000    0.6568    0.0000 C   0  0  3  0  0  0
   -0.6568   -0.6386    0.0000 C   0  0
   -1.8063   -1.3319    0.0000 C   0  0
   -0.8393    0.0000    0.0000 C   0  0  3  0  0  0
    0.9488    0.0000    0.0000 C   0  0
    1.8975   -0.8028    0.0000 O   0  0
    1.6421    0.6933    0.0000 C   0  0
   -0.6577    3.6528    0.0000 N   0  0
   -0.8391    5.1417    0.0000 C   0  0
    0.3603    6.0438    0.0000 N   0  0
    1.6012    6.3621    0.0000 C   0  0  3  0  0  0
    1.4430    7.8059    0.0000 C   0  0
    0.6116    8.8598    0.0000 C   0  0
    1.0472    7.2725    0.0000 C   0  0  3  0  0  0
    2.7206    6.6425    0.0000 C   0  0
    3.8914    7.0594    0.0000 O   0  0
    3.1251    5.7493    0.0000 C   0  0
   -2.2193    5.7292    0.0000 N   0  0
   -4.9781    6.9046    0.0000 C   0  0
   -6.3574    7.4942    0.0000 C   0  0
  1  2  2  0
  2  3  1  0
  3  4  1  0
  4  5  2  0
  5  6  1  0
  6  7  2  0
  7  8  1  0
  8  9  1  0
  9 10  1  0
 10 11  1  0
 11 12  1  0
 12 13  1  0
 13 14  1  0
 14 15  1  0
 15 11  1  0
  7 16  1  0
 16 17  2  0
 17  4  1  0
  2 18  1  0
 18 19  1  0
 19 20  2  0
 20 21  1  0
 21 22  2  0
 22 23  1  0
 23 24  2  0
 24 25  1  0
 25 26  1  0
 26 27  1  0
 27 28  1  4
 28 29  1  0
 30 29  1  4
 30 26  1  0
 30 31  1  0
 31 32  1  0
 32 33  1  0
 33 27  1  0
 25 34  2  0
 34 35  1  0
 35 36  1  0
 36 37  1  0
 37 38  1  4
 38 39  1  0
 40 39  1  4
 40 36  1  0
 40 41  1  0
 41 42  1  0
 42 43  1  0
 43 37  1  0
 35 44  2  0
 44 23  1  0
 22 45  1  0
 45 46  2  0
 46 19  1  0
M  END
> <assay_chembl_id>
CHEMBL1108790

> <assay_description>
Antiproliferative activity against human LNCAP cells

> <document_journal>
Bioorg Med Chem Lett

> <molecule_chembl_id>
CHEMBL1092397

> <standard_value>
0.8

> <IC50_uM>
0.0008

> <Activity>
Yes

> <Canonical_Smiles>
O=C(Nc1ccc(OCCN2CCCC2)cc1)Nc1ccc(-c2nc(N3C4CCC3COC4)nc(N3C4CCC3COC4)n2)cc1

$$$$

  SciTegic03142313312D

 42 48  0  0  0  0            999 V2000
   -7.9116    9.5752    0.0000 O   0  0
   -9.1134    8.6777    0.0000 C   0  0
  -10.4922    9.2704    0.0000 N   0  0
  -10.6692   10.7608    0.0000 C   0  0
  -12.0464   11.3553    0.0000 C   0  0
  -12.2203   12.8451    0.0000 C   0  0
  -11.0169   13.7407    0.0000 C   0  0
  -11.1878   15.2317    0.0000 O   0  0
   -9.9825   16.1260    0.0000 C   0  0
  -10.1534   17.6171    0.0000 C   0  0
   -8.9488   18.5109    0.0000 O   0  0
   -9.6397   13.1463    0.0000 C   0  0
   -9.4659   11.6564    0.0000 C   0  0
   -8.9364    7.1873    0.0000 N   0  0
   -7.5576    6.5945    0.0000 C   0  0
   -7.3786    5.1053    0.0000 C   0  0
   -5.9993    4.5157    0.0000 C   0  0
   -4.7990    5.4153    0.0000 C   0  0
   -3.4181    4.8276    0.0000 C   0  0
   -3.2367    3.3386    0.0000 N   0  0
   -1.8781    2.7579    0.0000 C   0  0
   -1.0947    1.4779    0.0000 N   0  0
    0.0000    0.6568    0.0000 C   0  0  3  0  0  0
   -0.6568   -0.6386    0.0000 C   0  0
   -1.8063   -1.3319    0.0000 C   0  0
   -0.8393    0.0000    0.0000 C   0  0  3  0  0  0
    0.9488    0.0000    0.0000 C   0  0
    1.8975   -0.8028    0.0000 O   0  0
    1.6421    0.6933    0.0000 C   0  0
   -0.6577    3.6528    0.0000 N   0  0
   -0.8391    5.1417    0.0000 C   0  0
    0.3603    6.0438    0.0000 N   0  0
    1.6012    6.3621    0.0000 C   0  0  3  0  0  0
    1.4430    7.8059    0.0000 C   0  0
    0.6116    8.8598    0.0000 C   0  0
    1.0472    7.2725    0.0000 C   0  0  3  0  0  0
    2.7206    6.6425    0.0000 C   0  0
    3.8914    7.0594    0.0000 O   0  0
    3.1251    5.7493    0.0000 C   0  0
   -2.2193    5.7292    0.0000 N   0  0
   -4.9781    6.9046    0.0000 C   0  0
   -6.3574    7.4942    0.0000 C   0  0
  1  2  2  0
  2  3  1  0
  3  4  1  0
  4  5  2  0
  5  6  1  0
  6  7  2  0
  7  8  1  0
  8  9  1  0
  9 10  1  0
 10 11  1  0
  7 12  1  0
 12 13  2  0
 13  4  1  0
  2 14  1  0
 14 15  1  0
 15 16  2  0
 16 17  1  0
 17 18  2  0
 18 19  1  0
 19 20  2  0
 20 21  1  0
 21 22  1  0
 22 23  1  0
 23 24  1  4
 24 25  1  0
 26 25  1  4
 26 22  1  0
 26 27  1  0
 27 28  1  0
 28 29  1  0
 29 23  1  0
 21 30  2  0
 30 31  1  0
 31 32  1  0
 32 33  1  0
 33 34  1  4
 34 35  1  0
 36 35  1  4
 36 32  1  0
 36 37  1  0
 37 38  1  0
 38 39  1  0
 39 33  1  0
 31 40  2  0
 40 19  1  0
 18 41  1  0
 41 42  2  0
 42 15  1  0
M  END
> <assay_chembl_id>
CHEMBL1108790

> <assay_description>
Antiproliferative activity against human LNCAP cells

> <document_journal>
Bioorg Med Chem Lett

> <molecule_chembl_id>
CHEMBL1092398

> <standard_value>
0.8

> <IC50_uM>
0.0008

> <Activity>
Yes

> <Canonical_Smiles>
O=C(Nc1ccc(OCCO)cc1)Nc1ccc(-c2nc(N3C4CCC3COC4)nc(N3C4CCC3COC4)n2)cc1

$$$$

  SciTegic03142313312D

 41 46  0  0  0  0            999 V2000
    2.9430    6.3508    0.0000 C   0  0
    1.7424    5.4517    0.0000 C   0  0
    1.9212    3.9624    0.0000 C   0  0
    0.3623    6.0414    0.0000 N   0  0
   -0.8391    5.1417    0.0000 C   0  0
   -2.2193    5.7292    0.0000 N   0  0
   -3.4181    4.8276    0.0000 C   0  0
   -4.7990    5.4153    0.0000 C   0  0
   -4.9828    6.9040    0.0000 C   0  0
   -6.3640    7.4892    0.0000 C   0  0
   -7.5613    6.5858    0.0000 C   0  0
   -8.9444    7.1685    0.0000 N   0  0
  -10.1412    6.2628    0.0000 C   0  0
   -9.9549    4.7744    0.0000 O   0  0
  -11.5243    6.8455    0.0000 N   0  0
  -12.7210    5.9398    0.0000 C   0  0
  -14.1042    6.5201    0.0000 C   0  0
  -15.2985    5.6125    0.0000 C   0  0
  -15.1096    4.1245    0.0000 C   0  0
  -16.3044    3.2164    0.0000 N   0  0
  -17.6886    3.7946    0.0000 C   0  0
  -18.8814    2.8850    0.0000 C   0  0
  -18.6901    1.3973    0.0000 N   0  0
  -19.8829    0.4878    0.0000 C   0  0
  -17.3061    0.8190    0.0000 C   0  0
  -16.1133    1.7286    0.0000 C   0  0
  -13.7264    3.5440    0.0000 C   0  0
  -12.5322    4.4516    0.0000 C   0  0
   -7.3776    5.0971    0.0000 C   0  0
   -5.9965    4.5118    0.0000 C   0  0
   -3.2367    3.3386    0.0000 N   0  0
   -1.8781    2.7579    0.0000 C   0  0
   -1.0947    1.4779    0.0000 N   0  0
    0.0000    0.6568    0.0000 C   0  0  3  0  0  0
   -0.6568   -0.6386    0.0000 C   0  0
   -1.8063   -1.3319    0.0000 C   0  0
   -0.8393    0.0000    0.0000 C   0  0  3  0  0  0
    0.9488    0.0000    0.0000 C   0  0
    1.8975   -0.8028    0.0000 O   0  0
    1.6421    0.6933    0.0000 C   0  0
   -0.6577    3.6528    0.0000 N   0  0
  1  2  1  0
  2  3  1  0
  2  4  1  0
  4  5  1  0
  5  6  2  0
  6  7  1  0
  7  8  1  0
  8  9  2  0
  9 10  1  0
 10 11  2  0
 11 12  1  0
 12 13  1  0
 13 14  2  0
 13 15  1  0
 15 16  1  0
 16 17  2  0
 17 18  1  0
 18 19  2  0
 19 20  1  0
 20 21  1  0
 21 22  1  0
 22 23  1  0
 23 24  1  0
 23 25  1  0
 25 26  1  0
 26 20  1  0
 19 27  1  0
 27 28  2  0
 28 16  1  0
 11 29  1  0
 29 30  2  0
 30  8  1  0
  7 31  2  0
 31 32  1  0
 32 33  1  0
 33 34  1  0
 34 35  1  4
 35 36  1  0
 37 36  1  4
 37 33  1  0
 37 38  1  0
 38 39  1  0
 39 40  1  0
 40 34  1  0
 32 41  2  0
 41  5  1  0
M  END
> <assay_chembl_id>
CHEMBL1108790

> <assay_description>
Antiproliferative activity against human LNCAP cells

> <document_journal>
Bioorg Med Chem Lett

> <molecule_chembl_id>
CHEMBL1091345

> <standard_value>
50

> <IC50_uM>
0.05

> <Activity>
Yes

> <Canonical_Smiles>
CC(C)Nc1nc(-c2ccc(NC(=O)Nc3ccc(N4CCN(C)CC4)cc3)cc2)nc(N2C3CCC2COC3)n1

$$$$

  SciTegic03142313312D

 42 47  0  0  0  0            999 V2000
    2.9430    6.3508    0.0000 C   0  0
    1.7424    5.4517    0.0000 C   0  0
    1.9212    3.9624    0.0000 C   0  0
    0.3623    6.0414    0.0000 N   0  0
    0.1835    7.5307    0.0000 C   0  0
   -0.8391    5.1417    0.0000 C   0  0
   -2.2193    5.7292    0.0000 N   0  0
   -3.4181    4.8276    0.0000 C   0  0
   -4.7990    5.4153    0.0000 C   0  0
   -4.9828    6.9040    0.0000 C   0  0
   -6.3640    7.4892    0.0000 C   0  0
   -7.5613    6.5858    0.0000 C   0  0
   -8.9444    7.1685    0.0000 N   0  0
  -10.1412    6.2628    0.0000 C   0  0
   -9.9549    4.7744    0.0000 O   0  0
  -11.5243    6.8455    0.0000 N   0  0
  -12.7210    5.9398    0.0000 C   0  0
  -14.1042    6.5201    0.0000 C   0  0
  -15.2985    5.6125    0.0000 C   0  0
  -15.1096    4.1245    0.0000 C   0  0
  -16.3044    3.2164    0.0000 N   0  0
  -17.6886    3.7946    0.0000 C   0  0
  -18.8814    2.8850    0.0000 C   0  0
  -18.6901    1.3973    0.0000 N   0  0
  -19.8829    0.4878    0.0000 C   0  0
  -17.3061    0.8190    0.0000 C   0  0
  -16.1133    1.7286    0.0000 C   0  0
  -13.7264    3.5440    0.0000 C   0  0
  -12.5322    4.4516    0.0000 C   0  0
   -7.3776    5.0971    0.0000 C   0  0
   -5.9965    4.5118    0.0000 C   0  0
   -3.2367    3.3386    0.0000 N   0  0
   -1.8781    2.7579    0.0000 C   0  0
   -1.0947    1.4779    0.0000 N   0  0
    0.0000    0.6568    0.0000 C   0  0  3  0  0  0
   -0.6568   -0.6386    0.0000 C   0  0
   -1.8063   -1.3319    0.0000 C   0  0
   -0.8393    0.0000    0.0000 C   0  0  3  0  0  0
    0.9488    0.0000    0.0000 C   0  0
    1.8975   -0.8028    0.0000 O   0  0
    1.6421    0.6933    0.0000 C   0  0
   -0.6577    3.6528    0.0000 N   0  0
  1  2  1  0
  2  3  1  0
  2  4  1  0
  4  5  1  0
  4  6  1  0
  6  7  2  0
  7  8  1  0
  8  9  1  0
  9 10  2  0
 10 11  1  0
 11 12  2  0
 12 13  1  0
 13 14  1  0
 14 15  2  0
 14 16  1  0
 16 17  1  0
 17 18  2  0
 18 19  1  0
 19 20  2  0
 20 21  1  0
 21 22  1  0
 22 23  1  0
 23 24  1  0
 24 25  1  0
 24 26  1  0
 26 27  1  0
 27 21  1  0
 20 28  1  0
 28 29  2  0
 29 17  1  0
 12 30  1  0
 30 31  2  0
 31  9  1  0
  8 32  2  0
 32 33  1  0
 33 34  1  0
 34 35  1  0
 35 36  1  4
 36 37  1  0
 38 37  1  4
 38 34  1  0
 38 39  1  0
 39 40  1  0
 40 41  1  0
 41 35  1  0
 33 42  2  0
 42  6  1  0
M  END
> <assay_chembl_id>
CHEMBL1108790

> <assay_description>
Antiproliferative activity against human LNCAP cells

> <document_journal>
Bioorg Med Chem Lett

> <molecule_chembl_id>
CHEMBL1091346

> <standard_value>
240

> <IC50_uM>
0.24

> <Activity>
Yes

> <Canonical_Smiles>
CC(C)N(C)c1nc(-c2ccc(NC(=O)Nc3ccc(N4CCN(C)CC4)cc3)cc2)nc(N2C3CCC2COC3)n1

$$$$

  SciTegic03142313312D

 43 49  0  0  0  0            999 V2000
   16.1861    4.8816    0.0000 C   0  0
   14.8099    5.4782    0.0000 N   0  0
   14.6383    6.9684    0.0000 C   0  0
   13.2621    7.5649    0.0000 C   0  0
   12.0572    6.6714    0.0000 N   0  0
   10.6793    7.2660    0.0000 C   0  0
   10.5054    8.7559    0.0000 C   0  0
    9.1282    9.3503    0.0000 C   0  0
    7.9248    8.4548    0.0000 C   0  0
    6.5456    9.0467    0.0000 N   0  0
    5.3429    8.1490    0.0000 C   0  0
    5.5193    6.6594    0.0000 O   0  0
    3.9637    8.7409    0.0000 N   0  0
    2.7609    7.8432    0.0000 C   0  0
    1.3816    8.4328    0.0000 C   0  0
    0.1814    7.5331    0.0000 C   0  0
    0.3603    6.0438    0.0000 C   0  0
   -0.8391    5.1417    0.0000 C   0  0
   -2.2193    5.7292    0.0000 N   0  0
   -3.4181    4.8276    0.0000 C   0  0
   -4.7990    5.4153    0.0000 N   0  0
   -4.9828    6.9040    0.0000 C   0  0
   -6.3640    7.4892    0.0000 C   0  0
   -7.5613    6.5858    0.0000 S   0  0
   -7.3776    5.0971    0.0000 C   0  0
   -5.9965    4.5118    0.0000 C   0  0
   -3.2367    3.3386    0.0000 N   0  0
   -1.8781    2.7579    0.0000 C   0  0
   -1.0947    1.4779    0.0000 N   0  0
    0.0000    0.6568    0.0000 C   0  0  3  0  0  0
   -0.6568   -0.6386    0.0000 C   0  0
   -1.8063   -1.3319    0.0000 C   0  0
   -0.8393    0.0000    0.0000 C   0  0  3  0  0  0
    0.9488    0.0000    0.0000 C   0  0
    1.8975   -0.8028    0.0000 O   0  0
    1.6421    0.6933    0.0000 C   0  0
   -0.6577    3.6528    0.0000 N   0  0
    1.7397    5.4542    0.0000 C   0  0
    2.9399    6.3539    0.0000 C   0  0
    8.0987    6.9649    0.0000 C   0  0
    9.4759    6.3705    0.0000 C   0  0
   12.2288    5.1811    0.0000 C   0  0
   13.6051    4.5846    0.0000 C   0  0
  1  2  1  0
  2  3  1  0
  3  4  1  0
  4  5  1  0
  5  6  1  0
  6  7  2  0
  7  8  1  0
  8  9  2  0
  9 10  1  0
 10 11  1  0
 11 12  2  0
 11 13  1  0
 13 14  1  0
 14 15  2  0
 15 16  1  0
 16 17  2  0
 17 18  1  0
 18 19  2  0
 19 20  1  0
 20 21  1  0
 21 22  1  0
 22 23  1  0
 23 24  1  0
 24 25  1  0
 25 26  1  0
 26 21  1  0
 20 27  2  0
 27 28  1  0
 28 29  1  0
 29 30  1  0
 30 31  1  4
 31 32  1  0
 33 32  1  4
 33 29  1  0
 33 34  1  0
 34 35  1  0
 35 36  1  0
 36 30  1  0
 28 37  2  0
 37 18  1  0
 17 38  1  0
 38 39  2  0
 39 14  1  0
  9 40  1  0
 40 41  2  0
 41  6  1  0
  5 42  1  0
 42 43  1  0
 43  2  1  0
M  END
> <assay_chembl_id>
CHEMBL1108790

> <assay_description>
Antiproliferative activity against human LNCAP cells

> <document_journal>
Bioorg Med Chem Lett

> <molecule_chembl_id>
CHEMBL1091347

> <standard_value>
800

> <IC50_uM>
0.8

> <Activity>
Yes

> <Canonical_Smiles>
CN1CCN(c2ccc(NC(=O)Nc3ccc(-c4nc(N5CCSCC5)nc(N5C6CCC5COC6)n4)cc3)cc2)CC1

$$$$

  SciTegic03142313312D

 44 50  0  0  1  0            999 V2000
   -1.1978    8.1228    0.0000 C   0  0
    0.1814    7.5331    0.0000 C   0  0  2  0  0  0
    1.3817    8.4328    0.0000 C   0  0
    2.7609    7.8432    0.0000 O   0  0
    2.9399    6.3539    0.0000 C   0  0
    1.7397    5.4542    0.0000 C   0  0
    0.3603    6.0438    0.0000 N   0  0
   -0.8391    5.1417    0.0000 C   0  0
   -2.2193    5.7292    0.0000 N   0  0
   -3.4181    4.8276    0.0000 C   0  0
   -4.7990    5.4153    0.0000 C   0  0
   -4.9828    6.9040    0.0000 C   0  0
   -6.3640    7.4892    0.0000 C   0  0
   -7.5613    6.5858    0.0000 C   0  0
   -8.9444    7.1685    0.0000 N   0  0
  -10.1412    6.2628    0.0000 C   0  0
   -9.9549    4.7744    0.0000 O   0  0
  -11.5243    6.8455    0.0000 N   0  0
  -12.7210    5.9398    0.0000 C   0  0
  -14.1042    6.5201    0.0000 C   0  0
  -15.2985    5.6125    0.0000 C   0  0
  -15.1096    4.1245    0.0000 C   0  0
  -16.3044    3.2164    0.0000 N   0  0
  -17.6886    3.7946    0.0000 C   0  0
  -18.8814    2.8850    0.0000 C   0  0
  -18.6901    1.3973    0.0000 N   0  0
  -19.8829    0.4878    0.0000 C   0  0
  -17.3061    0.8190    0.0000 C   0  0
  -16.1133    1.7286    0.0000 C   0  0
  -13.7264    3.5440    0.0000 C   0  0
  -12.5322    4.4516    0.0000 C   0  0
   -7.3776    5.0971    0.0000 C   0  0
   -5.9965    4.5118    0.0000 C   0  0
   -3.2367    3.3386    0.0000 N   0  0
   -1.8781    2.7579    0.0000 C   0  0
   -1.0947    1.4779    0.0000 N   0  0
    0.0000    0.6568    0.0000 C   0  0  3  0  0  0
   -0.6568   -0.6386    0.0000 C   0  0
   -1.8063   -1.3319    0.0000 C   0  0
   -0.8393    0.0000    0.0000 C   0  0  3  0  0  0
    0.9488    0.0000    0.0000 C   0  0
    1.8975   -0.8028    0.0000 O   0  0
    1.6421    0.6933    0.0000 C   0  0
   -0.6577    3.6528    0.0000 N   0  0
  2  1  1  6
  2  3  1  0
  3  4  1  0
  4  5  1  0
  5  6  1  0
  6  7  1  0
  7  2  1  0
  7  8  1  0
  8  9  2  0
  9 10  1  0
 10 11  1  0
 11 12  2  0
 12 13  1  0
 13 14  2  0
 14 15  1  0
 15 16  1  0
 16 17  2  0
 16 18  1  0
 18 19  1  0
 19 20  2  0
 20 21  1  0
 21 22  2  0
 22 23  1  0
 23 24  1  0
 24 25  1  0
 25 26  1  0
 26 27  1  0
 26 28  1  0
 28 29  1  0
 29 23  1  0
 22 30  1  0
 30 31  2  0
 31 19  1  0
 14 32  1  0
 32 33  2  0
 33 11  1  0
 10 34  2  0
 34 35  1  0
 35 36  1  0
 36 37  1  0
 37 38  1  4
 38 39  1  0
 40 39  1  4
 40 36  1  0
 40 41  1  0
 41 42  1  0
 42 43  1  0
 43 37  1  0
 35 44  2  0
 44  8  1  0
M  END
> <assay_chembl_id>
CHEMBL1108790

> <assay_description>
Antiproliferative activity against human LNCAP cells

> <document_journal>
Bioorg Med Chem Lett

> <molecule_chembl_id>
CHEMBL1091348

> <standard_value>
6

> <IC50_uM>
0.006

> <Activity>
Yes

> <Canonical_Smiles>
C[C@@H]1COCCN1c1nc(-c2ccc(NC(=O)Nc3ccc(N4CCN(C)CC4)cc3)cc2)nc(N2C3CCC2COC3)n1

$$$$

  SciTegic03142313312D

 43 49  0  0  0  0            999 V2000
   16.1861    4.8816    0.0000 C   0  0
   14.8099    5.4782    0.0000 N   0  0
   14.6383    6.9684    0.0000 C   0  0
   13.2621    7.5649    0.0000 C   0  0
   12.0572    6.6714    0.0000 N   0  0
   10.6793    7.2660    0.0000 C   0  0
   10.5054    8.7559    0.0000 C   0  0
    9.1282    9.3503    0.0000 C   0  0
    7.9248    8.4548    0.0000 C   0  0
    6.5456    9.0467    0.0000 N   0  0
    5.3429    8.1490    0.0000 C   0  0
    5.5193    6.6594    0.0000 O   0  0
    3.9637    8.7409    0.0000 N   0  0
    2.7609    7.8432    0.0000 C   0  0
    1.3816    8.4328    0.0000 C   0  0
    0.1814    7.5331    0.0000 C   0  0
    0.3603    6.0438    0.0000 C   0  0
   -0.8391    5.1417    0.0000 C   0  0
   -2.2193    5.7292    0.0000 N   0  0
   -3.4181    4.8276    0.0000 C   0  0
   -4.7990    5.4153    0.0000 C   0  0
   -4.9828    6.9040    0.0000 C   0  0
   -6.3640    7.4892    0.0000 C   0  0
   -7.5613    6.5858    0.0000 O   0  0
   -7.3776    5.0971    0.0000 C   0  0
   -5.9965    4.5118    0.0000 C   0  0
   -3.2367    3.3386    0.0000 N   0  0
   -1.8781    2.7579    0.0000 C   0  0
   -1.0947    1.4779    0.0000 N   0  0
    0.0000    0.6568    0.0000 C   0  0  3  0  0  0
   -0.6568   -0.6386    0.0000 C   0  0
   -1.8063   -1.3319    0.0000 C   0  0
   -0.8393    0.0000    0.0000 C   0  0  3  0  0  0
    0.9488    0.0000    0.0000 C   0  0
    1.8975   -0.8028    0.0000 O   0  0
    1.6421    0.6933    0.0000 C   0  0
   -0.6577    3.6528    0.0000 N   0  0
    1.7397    5.4542    0.0000 C   0  0
    2.9399    6.3539    0.0000 C   0  0
    8.0987    6.9649    0.0000 C   0  0
    9.4759    6.3705    0.0000 C   0  0
   12.2288    5.1811    0.0000 C   0  0
   13.6051    4.5846    0.0000 C   0  0
  1  2  1  0
  2  3  1  0
  3  4  1  0
  4  5  1  0
  5  6  1  0
  6  7  2  0
  7  8  1  0
  8  9  2  0
  9 10  1  0
 10 11  1  0
 11 12  2  0
 11 13  1  0
 13 14  1  0
 14 15  2  0
 15 16  1  0
 16 17  2  0
 17 18  1  0
 18 19  2  0
 19 20  1  0
 20 21  1  0
 21 22  2  0
 22 23  1  0
 23 24  1  0
 24 25  1  0
 25 26  1  0
 26 21  1  0
 20 27  2  0
 27 28  1  0
 28 29  1  0
 29 30  1  0
 30 31  1  4
 31 32  1  0
 33 32  1  4
 33 29  1  0
 33 34  1  0
 34 35  1  0
 35 36  1  0
 36 30  1  0
 28 37  2  0
 37 18  1  0
 17 38  1  0
 38 39  2  0
 39 14  1  0
  9 40  1  0
 40 41  2  0
 41  6  1  0
  5 42  1  0
 42 43  1  0
 43  2  1  0
M  END
> <assay_chembl_id>
CHEMBL1108790

> <assay_description>
Antiproliferative activity against human LNCAP cells

> <document_journal>
Bioorg Med Chem Lett

> <molecule_chembl_id>
CHEMBL1091349

> <standard_value>
25

> <IC50_uM>
0.025

> <Activity>
Yes

> <Canonical_Smiles>
CN1CCN(c2ccc(NC(=O)Nc3ccc(-c4nc(C5=CCOCC5)nc(N5C6CCC5COC6)n4)cc3)cc2)CC1

$$$$

  SciTegic03142313312D

 43 49  0  0  0  0            999 V2000
   16.1861    4.8816    0.0000 C   0  0
   14.8099    5.4782    0.0000 N   0  0
   14.6383    6.9684    0.0000 C   0  0
   13.2621    7.5649    0.0000 C   0  0
   12.0572    6.6714    0.0000 N   0  0
   10.6793    7.2660    0.0000 C   0  0
   10.5054    8.7559    0.0000 C   0  0
    9.1282    9.3503    0.0000 C   0  0
    7.9248    8.4548    0.0000 C   0  0
    6.5456    9.0467    0.0000 N   0  0
    5.3429    8.1490    0.0000 C   0  0
    5.5193    6.6594    0.0000 O   0  0
    3.9637    8.7409    0.0000 N   0  0
    2.7609    7.8432    0.0000 C   0  0
    1.3816    8.4328    0.0000 C   0  0
    0.1814    7.5331    0.0000 C   0  0
    0.3603    6.0438    0.0000 C   0  0
   -0.8391    5.1417    0.0000 C   0  0
   -2.2193    5.7292    0.0000 N   0  0
   -3.4181    4.8276    0.0000 C   0  0
   -4.7990    5.4153    0.0000 C   0  0
   -4.9828    6.9040    0.0000 C   0  0
   -6.3640    7.4892    0.0000 C   0  0
   -7.5613    6.5858    0.0000 O   0  0
   -7.3776    5.0971    0.0000 C   0  0
   -5.9965    4.5118    0.0000 C   0  0
   -3.2367    3.3386    0.0000 N   0  0
   -1.8781    2.7579    0.0000 C   0  0
   -1.0947    1.4779    0.0000 N   0  0
    0.0000    0.6568    0.0000 C   0  0  3  0  0  0
   -0.6568   -0.6386    0.0000 C   0  0
   -1.8063   -1.3319    0.0000 C   0  0
   -0.8393    0.0000    0.0000 C   0  0  3  0  0  0
    0.9488    0.0000    0.0000 C   0  0
    1.8975   -0.8028    0.0000 O   0  0
    1.6421    0.6933    0.0000 C   0  0
   -0.6577    3.6528    0.0000 N   0  0
    1.7397    5.4542    0.0000 C   0  0
    2.9399    6.3539    0.0000 C   0  0
    8.0987    6.9649    0.0000 C   0  0
    9.4759    6.3705    0.0000 C   0  0
   12.2288    5.1811    0.0000 C   0  0
   13.6051    4.5846    0.0000 C   0  0
  1  2  1  0
  2  3  1  0
  3  4  1  0
  4  5  1  0
  5  6  1  0
  6  7  2  0
  7  8  1  0
  8  9  2  0
  9 10  1  0
 10 11  1  0
 11 12  2  0
 11 13  1  0
 13 14  1  0
 14 15  2  0
 15 16  1  0
 16 17  2  0
 17 18  1  0
 18 19  2  0
 19 20  1  0
 20 21  1  0
 21 22  1  0
 22 23  1  0
 23 24  1  0
 24 25  1  0
 25 26  1  0
 26 21  1  0
 20 27  2  0
 27 28  1  0
 28 29  1  0
 29 30  1  0
 30 31  1  4
 31 32  1  0
 33 32  1  4
 33 29  1  0
 33 34  1  0
 34 35  1  0
 35 36  1  0
 36 30  1  0
 28 37  2  0
 37 18  1  0
 17 38  1  0
 38 39  2  0
 39 14  1  0
  9 40  1  0
 40 41  2  0
 41  6  1  0
  5 42  1  0
 42 43  1  0
 43  2  1  0
M  END
> <assay_chembl_id>
CHEMBL1108790

> <assay_description>
Antiproliferative activity against human LNCAP cells

> <document_journal>
Bioorg Med Chem Lett

> <molecule_chembl_id>
CHEMBL1091350

> <standard_value>
0.8

> <IC50_uM>
0.0008

> <Activity>
Yes

> <Canonical_Smiles>
CN1CCN(c2ccc(NC(=O)Nc3ccc(-c4nc(C5CCOCC5)nc(N5C6CCC5COC6)n4)cc3)cc2)CC1

$$$$

  SciTegic03142313312D

 42 48  0  0  0  0            999 V2000
    5.5193    6.6594    0.0000 O   0  0
    5.3429    8.1490    0.0000 C   0  0
    3.9637    8.7409    0.0000 N   0  0
    2.7609    7.8432    0.0000 C   0  0
    1.3816    8.4328    0.0000 C   0  0
    0.1814    7.5331    0.0000 C   0  0
    0.3603    6.0438    0.0000 C   0  0
   -0.8391    5.1417    0.0000 C   0  0
   -2.2193    5.7292    0.0000 N   0  0
   -3.4181    4.8276    0.0000 C   0  0
   -4.7990    5.4153    0.0000 C   0  0
   -4.9828    6.9040    0.0000 C   0  0
   -6.3640    7.4892    0.0000 C   0  0
   -7.5613    6.5858    0.0000 O   0  0
   -7.3776    5.0971    0.0000 C   0  0
   -5.9965    4.5118    0.0000 C   0  0
   -3.2367    3.3386    0.0000 N   0  0
   -1.8781    2.7579    0.0000 C   0  0
   -1.0947    1.4779    0.0000 N   0  0
    0.0000    0.6568    0.0000 C   0  0  3  0  0  0
   -0.6568   -0.6386    0.0000 C   0  0
   -1.8063   -1.3319    0.0000 C   0  0
   -0.8393    0.0000    0.0000 C   0  0  3  0  0  0
    0.9488    0.0000    0.0000 C   0  0
    1.8975   -0.8028    0.0000 O   0  0
    1.6421    0.6933    0.0000 C   0  0
   -0.6577    3.6528    0.0000 N   0  0
    1.7397    5.4542    0.0000 C   0  0
    2.9399    6.3539    0.0000 C   0  0
    6.5456    9.0467    0.0000 N   0  0
    7.9248    8.4548    0.0000 C   0  0
    9.1282    9.3503    0.0000 C   0  0
   10.5054    8.7559    0.0000 C   0  0
   10.6793    7.2660    0.0000 C   0  0
   12.0572    6.6714    0.0000 N   0  0
   13.2621    7.5649    0.0000 C   0  0
   14.6383    6.9684    0.0000 C   0  0
   14.8098    5.4782    0.0000 N   0  0
   13.6051    4.5846    0.0000 C   0  0
   12.2288    5.1811    0.0000 C   0  0
    9.4759    6.3705    0.0000 C   0  0
    8.0987    6.9649    0.0000 C   0  0
  1  2  2  0
  2  3  1  0
  3  4  1  0
  4  5  2  0
  5  6  1  0
  6  7  2  0
  7  8  1  0
  8  9  2  0
  9 10  1  0
 10 11  1  0
 11 12  1  0
 12 13  1  0
 13 14  1  0
 14 15  1  0
 15 16  1  0
 16 11  1  0
 10 17  2  0
 17 18  1  0
 18 19  1  0
 19 20  1  0
 20 21  1  4
 21 22  1  0
 23 22  1  4
 23 19  1  0
 23 24  1  0
 24 25  1  0
 25 26  1  0
 26 20  1  0
 18 27  2  0
 27  8  1  0
  7 28  1  0
 28 29  2  0
 29  4  1  0
  2 30  1  0
 30 31  1  0
 31 32  2  0
 32 33  1  0
 33 34  2  0
 34 35  1  0
 35 36  1  0
 36 37  1  0
 37 38  1  0
 38 39  1  0
 39 40  1  0
 40 35  1  0
 34 41  1  0
 41 42  2  0
 42 31  1  0
M  END
> <assay_chembl_id>
CHEMBL1108790

> <assay_description>
Antiproliferative activity against human LNCAP cells

> <document_journal>
Bioorg Med Chem Lett

> <molecule_chembl_id>
CHEMBL1091351

> <standard_value>
20

> <IC50_uM>
0.02

> <Activity>
Yes

> <Canonical_Smiles>
O=C(Nc1ccc(-c2nc(C3CCOCC3)nc(N3C4CCC3COC4)n2)cc1)Nc1ccc(N2CCNCC2)cc1

$$$$

  SciTegic03142313312D

 45 51  0  0  0  0            999 V2000
   16.3550    3.3881    0.0000 C   0  0
   16.1857    4.8785    0.0000 C   0  0
   17.3920    5.7700    0.0000 C   0  0
   14.8099    5.4782    0.0000 N   0  0
   14.6383    6.9684    0.0000 C   0  0
   13.2621    7.5649    0.0000 C   0  0
   12.0572    6.6714    0.0000 N   0  0
   10.6793    7.2660    0.0000 C   0  0
   10.5054    8.7559    0.0000 C   0  0
    9.1282    9.3503    0.0000 C   0  0
    7.9248    8.4548    0.0000 C   0  0
    6.5456    9.0467    0.0000 N   0  0
    5.3429    8.1490    0.0000 C   0  0
    5.5193    6.6594    0.0000 O   0  0
    3.9637    8.7409    0.0000 N   0  0
    2.7609    7.8432    0.0000 C   0  0
    1.3816    8.4328    0.0000 C   0  0
    0.1814    7.5331    0.0000 C   0  0
    0.3603    6.0438    0.0000 C   0  0
   -0.8391    5.1417    0.0000 C   0  0
   -2.2193    5.7292    0.0000 N   0  0
   -3.4181    4.8276    0.0000 C   0  0
   -4.7990    5.4153    0.0000 C   0  0
   -4.9828    6.9040    0.0000 C   0  0
   -6.3640    7.4892    0.0000 C   0  0
   -7.5613    6.5858    0.0000 O   0  0
   -7.3776    5.0971    0.0000 C   0  0
   -5.9965    4.5118    0.0000 C   0  0
   -3.2367    3.3386    0.0000 N   0  0
   -1.8781    2.7579    0.0000 C   0  0
   -1.0947    1.4779    0.0000 N   0  0
    0.0000    0.6568    0.0000 C   0  0  3  0  0  0
   -0.6568   -0.6386    0.0000 C   0  0
   -1.8063   -1.3319    0.0000 C   0  0
   -0.8393    0.0000    0.0000 C   0  0  3  0  0  0
    0.9488    0.0000    0.0000 C   0  0
    1.8975   -0.8028    0.0000 O   0  0
    1.6421    0.6933    0.0000 C   0  0
   -0.6577    3.6528    0.0000 N   0  0
    1.7397    5.4542    0.0000 C   0  0
    2.9399    6.3539    0.0000 C   0  0
    8.0987    6.9649    0.0000 C   0  0
    9.4759    6.3705    0.0000 C   0  0
   12.2288    5.1811    0.0000 C   0  0
   13.6051    4.5846    0.0000 C   0  0
  1  2  1  0
  2  3  1  0
  2  4  1  0
  4  5  1  0
  5  6  1  0
  6  7  1  0
  7  8  1  0
  8  9  2  0
  9 10  1  0
 10 11  2  0
 11 12  1  0
 12 13  1  0
 13 14  2  0
 13 15  1  0
 15 16  1  0
 16 17  2  0
 17 18  1  0
 18 19  2  0
 19 20  1  0
 20 21  2  0
 21 22  1  0
 22 23  1  0
 23 24  1  0
 24 25  1  0
 25 26  1  0
 26 27  1  0
 27 28  1  0
 28 23  1  0
 22 29  2  0
 29 30  1  0
 30 31  1  0
 31 32  1  0
 32 33  1  4
 33 34  1  0
 35 34  1  4
 35 31  1  0
 35 36  1  0
 36 37  1  0
 37 38  1  0
 38 32  1  0
 30 39  2  0
 39 20  1  0
 19 40  1  0
 40 41  2  0
 41 16  1  0
 11 42  1  0
 42 43  2  0
 43  8  1  0
  7 44  1  0
 44 45  1  0
 45  4  1  0
M  END
> <assay_chembl_id>
CHEMBL1108790

> <assay_description>
Antiproliferative activity against human LNCAP cells

> <document_journal>
Bioorg Med Chem Lett

> <molecule_chembl_id>
CHEMBL1091353

> <standard_value>
18

> <IC50_uM>
0.018

> <Activity>
Yes

> <Canonical_Smiles>
CC(C)N1CCN(c2ccc(NC(=O)Nc3ccc(-c4nc(C5CCOCC5)nc(N5C6CCC5COC6)n4)cc3)cc2)CC1

$$$$

  SciTegic03142313312D

 45 51  0  0  0  0            999 V2000
   16.3550    3.3881    0.0000 C   0  0
   16.1857    4.8785    0.0000 N   0  0
   17.3920    5.7700    0.0000 C   0  0
   14.8099    5.4782    0.0000 C   0  0
   14.6383    6.9684    0.0000 C   0  0
   13.2621    7.5649    0.0000 C   0  0
   12.0572    6.6714    0.0000 N   0  0
   10.6793    7.2660    0.0000 C   0  0
   10.5054    8.7559    0.0000 C   0  0
    9.1282    9.3503    0.0000 C   0  0
    7.9248    8.4548    0.0000 C   0  0
    6.5456    9.0467    0.0000 N   0  0
    5.3429    8.1490    0.0000 C   0  0
    5.5193    6.6594    0.0000 O   0  0
    3.9637    8.7409    0.0000 N   0  0
    2.7609    7.8432    0.0000 C   0  0
    1.3816    8.4328    0.0000 C   0  0
    0.1814    7.5331    0.0000 C   0  0
    0.3603    6.0438    0.0000 C   0  0
   -0.8391    5.1417    0.0000 C   0  0
   -2.2193    5.7292    0.0000 N   0  0
   -3.4181    4.8276    0.0000 C   0  0
   -4.7990    5.4153    0.0000 C   0  0
   -4.9828    6.9040    0.0000 C   0  0
   -6.3640    7.4892    0.0000 C   0  0
   -7.5613    6.5858    0.0000 O   0  0
   -7.3776    5.0971    0.0000 C   0  0
   -5.9965    4.5118    0.0000 C   0  0
   -3.2367    3.3386    0.0000 N   0  0
   -1.8781    2.7579    0.0000 C   0  0
   -1.0947    1.4779    0.0000 N   0  0
    0.0000    0.6568    0.0000 C   0  0  3  0  0  0
   -0.6568   -0.6386    0.0000 C   0  0
   -1.8063   -1.3319    0.0000 C   0  0
   -0.8393    0.0000    0.0000 C   0  0  3  0  0  0
    0.9488    0.0000    0.0000 C   0  0
    1.8975   -0.8028    0.0000 O   0  0
    1.6421    0.6933    0.0000 C   0  0
   -0.6577    3.6528    0.0000 N   0  0
    1.7397    5.4542    0.0000 C   0  0
    2.9399    6.3539    0.0000 C   0  0
    8.0987    6.9649    0.0000 C   0  0
    9.4759    6.3705    0.0000 C   0  0
   12.2288    5.1811    0.0000 C   0  0
   13.6051    4.5846    0.0000 C   0  0
  1  2  1  0
  2  3  1  0
  2  4  1  0
  4  5  1  0
  5  6  1  0
  6  7  1  0
  7  8  1  0
  8  9  2  0
  9 10  1  0
 10 11  2  0
 11 12  1  0
 12 13  1  0
 13 14  2  0
 13 15  1  0
 15 16  1  0
 16 17  2  0
 17 18  1  0
 18 19  2  0
 19 20  1  0
 20 21  2  0
 21 22  1  0
 22 23  1  0
 23 24  1  0
 24 25  1  0
 25 26  1  0
 26 27  1  0
 27 28  1  0
 28 23  1  0
 22 29  2  0
 29 30  1  0
 30 31  1  0
 31 32  1  0
 32 33  1  4
 33 34  1  0
 35 34  1  4
 35 31  1  0
 35 36  1  0
 36 37  1  0
 37 38  1  0
 38 32  1  0
 30 39  2  0
 39 20  1  0
 19 40  1  0
 40 41  2  0
 41 16  1  0
 11 42  1  0
 42 43  2  0
 43  8  1  0
  7 44  1  0
 44 45  1  0
 45  4  1  0
M  END
> <assay_chembl_id>
CHEMBL1108790

> <assay_description>
Antiproliferative activity against human LNCAP cells

> <document_journal>
Bioorg Med Chem Lett

> <molecule_chembl_id>
CHEMBL1091354

> <standard_value>
1

> <IC50_uM>
0.001

> <Activity>
Yes

> <Canonical_Smiles>
CN(C)C1CCN(c2ccc(NC(=O)Nc3ccc(-c4nc(C5CCOCC5)nc(N5C6CCC5COC6)n4)cc3)cc2)CC1

$$$$

  SciTegic03142313312D

 47 53  0  0  0  0            999 V2000
   11.5233   -0.1848    0.0000 C   0  0
   12.7310    0.7048    0.0000 C   0  0
   14.1052    0.1033    0.0000 C   0  0
   12.5653    2.1965    0.0000 N   0  0
   13.7718    3.0878    0.0000 C   0  0
   13.6030    4.5783    0.0000 C   0  0
   12.2279    5.1775    0.0000 N   0  0
   12.0561    6.6685    0.0000 C   0  0
   13.2610    7.5619    0.0000 O   0  0
   10.6793    7.2660    0.0000 C   0  0
   10.5054    8.7559    0.0000 C   0  0
    9.1282    9.3503    0.0000 C   0  0
    7.9248    8.4548    0.0000 C   0  0
    6.5456    9.0467    0.0000 N   0  0
    5.3429    8.1490    0.0000 C   0  0
    5.5193    6.6594    0.0000 O   0  0
    3.9637    8.7409    0.0000 N   0  0
    2.7609    7.8432    0.0000 C   0  0
    1.3816    8.4328    0.0000 C   0  0
    0.1814    7.5331    0.0000 C   0  0
    0.3603    6.0438    0.0000 C   0  0
   -0.8391    5.1417    0.0000 C   0  0
   -2.2193    5.7292    0.0000 N   0  0
   -3.4181    4.8276    0.0000 C   0  0
   -4.7990    5.4153    0.0000 C   0  0
   -4.9828    6.9040    0.0000 C   0  0
   -6.3640    7.4892    0.0000 C   0  0
   -7.5613    6.5858    0.0000 O   0  0
   -7.3776    5.0971    0.0000 C   0  0
   -5.9965    4.5118    0.0000 C   0  0
   -3.2367    3.3386    0.0000 N   0  0
   -1.8781    2.7579    0.0000 C   0  0
   -1.0947    1.4779    0.0000 N   0  0
    0.0000    0.6568    0.0000 C   0  0  3  0  0  0
   -0.6568   -0.6386    0.0000 C   0  0
   -1.8063   -1.3319    0.0000 C   0  0
   -0.8393    0.0000    0.0000 C   0  0  3  0  0  0
    0.9488    0.0000    0.0000 C   0  0
    1.8975   -0.8028    0.0000 O   0  0
    1.6421    0.6933    0.0000 C   0  0
   -0.6577    3.6528    0.0000 N   0  0
    1.7397    5.4542    0.0000 C   0  0
    2.9399    6.3539    0.0000 C   0  0
    8.0987    6.9649    0.0000 C   0  0
    9.4759    6.3705    0.0000 C   0  0
   11.0214    4.2861    0.0000 C   0  0
   11.1902    2.7956    0.0000 C   0  0
  1  2  1  0
  2  3  1  0
  2  4  1  0
  4  5  1  0
  5  6  1  0
  6  7  1  0
  7  8  1  0
  8  9  2  0
  8 10  1  0
 10 11  2  0
 11 12  1  0
 12 13  2  0
 13 14  1  0
 14 15  1  0
 15 16  2  0
 15 17  1  0
 17 18  1  0
 18 19  2  0
 19 20  1  0
 20 21  2  0
 21 22  1  0
 22 23  2  0
 23 24  1  0
 24 25  1  0
 25 26  1  0
 26 27  1  0
 27 28  1  0
 28 29  1  0
 29 30  1  0
 30 25  1  0
 24 31  2  0
 31 32  1  0
 32 33  1  0
 33 34  1  0
 34 35  1  4
 35 36  1  0
 37 36  1  4
 37 33  1  0
 37 38  1  0
 38 39  1  0
 39 40  1  0
 40 34  1  0
 32 41  2  0
 41 22  1  0
 21 42  1  0
 42 43  2  0
 43 18  1  0
 13 44  1  0
 44 45  2  0
 45 10  1  0
  7 46  1  0
 46 47  1  0
 47  4  1  0
M  END
> <assay_chembl_id>
CHEMBL1108790

> <assay_description>
Antiproliferative activity against human LNCAP cells

> <document_journal>
Bioorg Med Chem Lett

> <molecule_chembl_id>
CHEMBL1091356

> <standard_value>
0.9

> <IC50_uM>
0.0009

> <Activity>
Yes

> <Canonical_Smiles>
CC(C)N1CCN(C(=O)c2ccc(NC(=O)Nc3ccc(-c4nc(C5CCOCC5)nc(N5C6CCC5COC6)n4)cc3)cc2)CC1

$$$$

  SciTegic03142313312D

 42 47  0  0  0  0            999 V2000
   15.1525    2.4918    0.0000 C   0  0
   13.7765    3.0890    0.0000 N   0  0
   12.5716    2.1956    0.0000 C   0  0
   13.6046    4.5800    0.0000 C   0  0
   12.2279    5.1775    0.0000 C   0  0
   12.0561    6.6685    0.0000 O   0  0
   10.6793    7.2660    0.0000 C   0  0
   10.5054    8.7559    0.0000 C   0  0
    9.1282    9.3503    0.0000 C   0  0
    7.9248    8.4548    0.0000 C   0  0
    6.5456    9.0467    0.0000 N   0  0
    5.3429    8.1490    0.0000 C   0  0
    5.5193    6.6594    0.0000 O   0  0
    3.9637    8.7409    0.0000 N   0  0
    2.7609    7.8432    0.0000 C   0  0
    1.3816    8.4328    0.0000 C   0  0
    0.1814    7.5331    0.0000 C   0  0
    0.3603    6.0438    0.0000 C   0  0
   -0.8391    5.1417    0.0000 C   0  0
   -2.2193    5.7292    0.0000 N   0  0
   -3.4181    4.8276    0.0000 C   0  0
   -4.7990    5.4153    0.0000 C   0  0
   -4.9828    6.9040    0.0000 C   0  0
   -6.3640    7.4892    0.0000 C   0  0
   -7.5613    6.5858    0.0000 O   0  0
   -7.3776    5.0971    0.0000 C   0  0
   -5.9965    4.5118    0.0000 C   0  0
   -3.2367    3.3386    0.0000 N   0  0
   -1.8781    2.7579    0.0000 C   0  0
   -1.0947    1.4779    0.0000 N   0  0
    0.0000    0.6568    0.0000 C   0  0  3  0  0  0
   -0.6568   -0.6386    0.0000 C   0  0
   -1.8063   -1.3319    0.0000 C   0  0
   -0.8393    0.0000    0.0000 C   0  0  3  0  0  0
    0.9488    0.0000    0.0000 C   0  0
    1.8975   -0.8028    0.0000 O   0  0
    1.6421    0.6933    0.0000 C   0  0
   -0.6577    3.6528    0.0000 N   0  0
    1.7397    5.4542    0.0000 C   0  0
    2.9399    6.3539    0.0000 C   0  0
    8.0987    6.9649    0.0000 C   0  0
    9.4759    6.3705    0.0000 C   0  0
  1  2  1  0
  2  3  1  0
  2  4  1  0
  4  5  1  0
  5  6  1  0
  6  7  1  0
  7  8  2  0
  8  9  1  0
  9 10  2  0
 10 11  1  0
 11 12  1  0
 12 13  2  0
 12 14  1  0
 14 15  1  0
 15 16  2  0
 16 17  1  0
 17 18  2  0
 18 19  1  0
 19 20  2  0
 20 21  1  0
 21 22  1  0
 22 23  1  0
 23 24  1  0
 24 25  1  0
 25 26  1  0
 26 27  1  0
 27 22  1  0
 21 28  2  0
 28 29  1  0
 29 30  1  0
 30 31  1  0
 31 32  1  4
 32 33  1  0
 34 33  1  4
 34 30  1  0
 34 35  1  0
 35 36  1  0
 36 37  1  0
 37 31  1  0
 29 38  2  0
 38 19  1  0
 18 39  1  0
 39 40  2  0
 40 15  1  0
 10 41  1  0
 41 42  2  0
 42  7  1  0
M  END
> <assay_chembl_id>
CHEMBL1108790

> <assay_description>
Antiproliferative activity against human LNCAP cells

> <document_journal>
Bioorg Med Chem Lett

> <molecule_chembl_id>
CHEMBL1091359

> <standard_value>
9

> <IC50_uM>
0.009

> <Activity>
Yes

> <Canonical_Smiles>
CN(C)CCOc1ccc(NC(=O)Nc2ccc(-c3nc(C4CCOCC4)nc(N4C5CCC4COC5)n3)cc2)cc1

$$$$

  SciTegic03142313312D

 45 51  0  0  1  0            999 V2000
  -10.4964   20.5950    0.0000 C   0  0
  -11.7024   19.7031    0.0000 C   0  0
  -11.5339   18.2117    0.0000 N   0  0
  -12.7387   17.3181    0.0000 C   0  0
  -12.5672   15.8280    0.0000 C   0  0
  -11.1909   15.2313    0.0000 N   0  0
  -11.0169   13.7407    0.0000 C   0  0
  -12.2203   12.8451    0.0000 C   0  0
  -12.0464   11.3553    0.0000 C   0  0
  -10.6692   10.7608    0.0000 C   0  0
  -10.4922    9.2704    0.0000 N   0  0
   -9.1134    8.6777    0.0000 C   0  0
   -7.9116    9.5752    0.0000 O   0  0
   -8.9364    7.1873    0.0000 N   0  0
   -7.5576    6.5945    0.0000 C   0  0
   -7.3786    5.1053    0.0000 C   0  0
   -5.9993    4.5157    0.0000 C   0  0
   -4.7990    5.4153    0.0000 C   0  0
   -3.4181    4.8276    0.0000 C   0  0
   -3.2367    3.3386    0.0000 N   0  0
   -1.8781    2.7579    0.0000 C   0  0
   -1.0947    1.4779    0.0000 N   0  0
    0.0000    0.6568    0.0000 C   0  0  3  0  0  0
   -0.6568   -0.6386    0.0000 C   0  0
   -1.8063   -1.3319    0.0000 C   0  0
   -0.8393    0.0000    0.0000 C   0  0  3  0  0  0
    0.9488    0.0000    0.0000 C   0  0
    1.8975   -0.8028    0.0000 O   0  0
    1.6421    0.6933    0.0000 C   0  0
   -0.6577    3.6528    0.0000 N   0  0
   -0.8391    5.1417    0.0000 C   0  0
    0.3603    6.0438    0.0000 N   0  0
    0.1767    7.5326    0.0000 C   0  0
    1.3741    8.4360    0.0000 C   0  0
    2.7552    7.8508    0.0000 O   0  0
    2.9389    6.3621    0.0000 C   0  0
    1.7416    5.4586    0.0000 C   0  0  1  0  0  0
    1.9253    3.9699    0.0000 C   0  0
   -2.2193    5.7292    0.0000 N   0  0
   -4.9781    6.9046    0.0000 C   0  0
   -6.3574    7.4942    0.0000 C   0  0
   -9.4659   11.6564    0.0000 C   0  0
   -9.6397   13.1463    0.0000 C   0  0
   -9.9861   16.1250    0.0000 C   0  0
  -10.1576   17.6152    0.0000 C   0  0
  1  2  1  0
  2  3  1  0
  3  4  1  0
  4  5  1  0
  5  6  1  0
  6  7  1  0
  7  8  2  0
  8  9  1  0
  9 10  2  0
 10 11  1  0
 11 12  1  0
 12 13  2  0
 12 14  1  0
 14 15  1  0
 15 16  2  0
 16 17  1  0
 17 18  2  0
 18 19  1  0
 19 20  2  0
 20 21  1  0
 21 22  1  0
 22 23  1  0
 23 24  1  4
 24 25  1  0
 26 25  1  4
 26 22  1  0
 26 27  1  0
 27 28  1  0
 28 29  1  0
 29 23  1  0
 21 30  2  0
 30 31  1  0
 31 32  1  0
 32 33  1  0
 33 34  1  0
 34 35  1  0
 35 36  1  0
 36 37  1  0
 37 32  1  0
 37 38  1  1
 31 39  2  0
 39 19  1  0
 18 40  1  0
 40 41  2  0
 41 15  1  0
 10 42  1  0
 42 43  2  0
 43  7  1  0
  6 44  1  0
 44 45  1  0
 45  3  1  0
M  END
> <assay_chembl_id>
CHEMBL1108790

> <assay_description>
Antiproliferative activity against human LNCAP cells

> <document_journal>
Bioorg Med Chem Lett

> <molecule_chembl_id>
CHEMBL1076864

> <standard_value>
1

> <IC50_uM>
0.001

> <Activity>
Yes

> <Canonical_Smiles>
CCN1CCN(c2ccc(NC(=O)Nc3ccc(-c4nc(N5C6CCC5COC6)nc(N5CCOC[C@H]5C)n4)cc3)cc2)CC1

$$$$

  SciTegic03142313312D

 46 52  0  0  1  0            999 V2000
  -10.4964   20.5950    0.0000 C   0  0
  -11.7024   19.7031    0.0000 C   0  0
  -13.0777   20.3020    0.0000 C   0  0
  -11.5339   18.2117    0.0000 N   0  0
  -12.7387   17.3181    0.0000 C   0  0
  -12.5672   15.8280    0.0000 C   0  0
  -11.1909   15.2313    0.0000 N   0  0
  -11.0169   13.7407    0.0000 C   0  0
  -12.2203   12.8451    0.0000 C   0  0
  -12.0464   11.3553    0.0000 C   0  0
  -10.6692   10.7608    0.0000 C   0  0
  -10.4922    9.2704    0.0000 N   0  0
   -9.1134    8.6777    0.0000 C   0  0
   -7.9116    9.5752    0.0000 O   0  0
   -8.9364    7.1873    0.0000 N   0  0
   -7.5576    6.5945    0.0000 C   0  0
   -7.3786    5.1053    0.0000 C   0  0
   -5.9993    4.5157    0.0000 C   0  0
   -4.7990    5.4153    0.0000 C   0  0
   -3.4181    4.8276    0.0000 C   0  0
   -3.2367    3.3386    0.0000 N   0  0
   -1.8781    2.7579    0.0000 C   0  0
   -1.0947    1.4779    0.0000 N   0  0
    0.0000    0.6568    0.0000 C   0  0  3  0  0  0
   -0.6568   -0.6386    0.0000 C   0  0
   -1.8063   -1.3319    0.0000 C   0  0
   -0.8393    0.0000    0.0000 C   0  0  3  0  0  0
    0.9488    0.0000    0.0000 C   0  0
    1.8975   -0.8028    0.0000 O   0  0
    1.6421    0.6933    0.0000 C   0  0
   -0.6577    3.6528    0.0000 N   0  0
   -0.8391    5.1417    0.0000 C   0  0
    0.3603    6.0438    0.0000 N   0  0
    0.1767    7.5326    0.0000 C   0  0
    1.3741    8.4360    0.0000 C   0  0
    2.7552    7.8508    0.0000 O   0  0
    2.9389    6.3621    0.0000 C   0  0
    1.7416    5.4586    0.0000 C   0  0  1  0  0  0
    1.9253    3.9699    0.0000 C   0  0
   -2.2193    5.7292    0.0000 N   0  0
   -4.9781    6.9046    0.0000 C   0  0
   -6.3574    7.4942    0.0000 C   0  0
   -9.4659   11.6564    0.0000 C   0  0
   -9.6397   13.1463    0.0000 C   0  0
   -9.9861   16.1250    0.0000 C   0  0
  -10.1576   17.6152    0.0000 C   0  0
  1  2  1  0
  2  3  1  0
  2  4  1  0
  4  5  1  0
  5  6  1  0
  6  7  1  0
  7  8  1  0
  8  9  2  0
  9 10  1  0
 10 11  2  0
 11 12  1  0
 12 13  1  0
 13 14  2  0
 13 15  1  0
 15 16  1  0
 16 17  2  0
 17 18  1  0
 18 19  2  0
 19 20  1  0
 20 21  2  0
 21 22  1  0
 22 23  1  0
 23 24  1  0
 24 25  1  4
 25 26  1  0
 27 26  1  4
 27 23  1  0
 27 28  1  0
 28 29  1  0
 29 30  1  0
 30 24  1  0
 22 31  2  0
 31 32  1  0
 32 33  1  0
 33 34  1  0
 34 35  1  0
 35 36  1  0
 36 37  1  0
 37 38  1  0
 38 33  1  0
 38 39  1  1
 32 40  2  0
 40 20  1  0
 19 41  1  0
 41 42  2  0
 42 16  1  0
 11 43  1  0
 43 44  2  0
 44  8  1  0
  7 45  1  0
 45 46  1  0
 46  4  1  0
M  END
> <assay_chembl_id>
CHEMBL1108790

> <assay_description>
Antiproliferative activity against human LNCAP cells

> <document_journal>
Bioorg Med Chem Lett

> <molecule_chembl_id>
CHEMBL1091711

> <standard_value>
6

> <IC50_uM>
0.006

> <Activity>
Yes

> <Canonical_Smiles>
CC(C)N1CCN(c2ccc(NC(=O)Nc3ccc(-c4nc(N5C6CCC5COC6)nc(N5CCOC[C@H]5C)n4)cc3)cc2)CC1

$$$$

  SciTegic03142313312D

 46 52  0  0  1  0            999 V2000
   -1.1978    8.1228    0.0000 C   0  0
    0.1814    7.5331    0.0000 C   0  0  2  0  0  0
    1.3817    8.4328    0.0000 C   0  0
    2.7609    7.8432    0.0000 O   0  0
    2.9399    6.3539    0.0000 C   0  0
    1.7397    5.4542    0.0000 C   0  0
    0.3603    6.0438    0.0000 N   0  0
   -0.8391    5.1417    0.0000 C   0  0
   -2.2193    5.7292    0.0000 N   0  0
   -3.4181    4.8276    0.0000 C   0  0
   -4.7990    5.4153    0.0000 C   0  0
   -4.9828    6.9040    0.0000 C   0  0
   -6.3640    7.4892    0.0000 C   0  0
   -7.5613    6.5858    0.0000 C   0  0
   -8.9444    7.1685    0.0000 N   0  0
  -10.1412    6.2628    0.0000 C   0  0
   -9.9549    4.7744    0.0000 O   0  0
  -11.5243    6.8455    0.0000 N   0  0
  -12.7210    5.9398    0.0000 C   0  0
  -14.1042    6.5201    0.0000 C   0  0
  -15.2985    5.6125    0.0000 C   0  0
  -15.1096    4.1245    0.0000 C   0  0
  -16.3044    3.2164    0.0000 N   0  0
  -17.6886    3.7946    0.0000 C   0  0
  -18.8814    2.8850    0.0000 C   0  0
  -18.6901    1.3973    0.0000 C   0  0
  -19.8817    0.4848    0.0000 N   0  0
  -19.6883   -1.0027    0.0000 C   0  0
  -21.2668    1.0606    0.0000 C   0  0
  -17.3061    0.8190    0.0000 C   0  0
  -16.1133    1.7286    0.0000 C   0  0
  -13.7264    3.5440    0.0000 C   0  0
  -12.5322    4.4516    0.0000 C   0  0
   -7.3776    5.0971    0.0000 C   0  0
   -5.9965    4.5118    0.0000 C   0  0
   -3.2367    3.3386    0.0000 N   0  0
   -1.8781    2.7579    0.0000 C   0  0
   -1.0947    1.4779    0.0000 N   0  0
    0.0000    0.6568    0.0000 C   0  0  3  0  0  0
   -0.6568   -0.6386    0.0000 C   0  0
   -1.8063   -1.3319    0.0000 C   0  0
   -0.8393    0.0000    0.0000 C   0  0  3  0  0  0
    0.9488    0.0000    0.0000 C   0  0
    1.8975   -0.8028    0.0000 O   0  0
    1.6421    0.6933    0.0000 C   0  0
   -0.6577    3.6528    0.0000 N   0  0
  2  1  1  6
  2  3  1  0
  3  4  1  0
  4  5  1  0
  5  6  1  0
  6  7  1  0
  7  2  1  0
  7  8  1  0
  8  9  2  0
  9 10  1  0
 10 11  1  0
 11 12  2  0
 12 13  1  0
 13 14  2  0
 14 15  1  0
 15 16  1  0
 16 17  2  0
 16 18  1  0
 18 19  1  0
 19 20  2  0
 20 21  1  0
 21 22  2  0
 22 23  1  0
 23 24  1  0
 24 25  1  0
 25 26  1  0
 26 27  1  0
 27 28  1  0
 27 29  1  0
 26 30  1  0
 30 31  1  0
 31 23  1  0
 22 32  1  0
 32 33  2  0
 33 19  1  0
 14 34  1  0
 34 35  2  0
 35 11  1  0
 10 36  2  0
 36 37  1  0
 37 38  1  0
 38 39  1  0
 39 40  1  4
 40 41  1  0
 42 41  1  4
 42 38  1  0
 42 43  1  0
 43 44  1  0
 44 45  1  0
 45 39  1  0
 37 46  2  0
 46  8  1  0
M  END
> <assay_chembl_id>
CHEMBL1108790

> <assay_description>
Antiproliferative activity against human LNCAP cells

> <document_journal>
Bioorg Med Chem Lett

> <molecule_chembl_id>
CHEMBL1091712

> <standard_value>
8

> <IC50_uM>
0.008

> <Activity>
Yes

> <Canonical_Smiles>
C[C@@H]1COCCN1c1nc(-c2ccc(NC(=O)Nc3ccc(N4CCC(N(C)C)CC4)cc3)cc2)nc(N2C3CCC2COC3)n1

$$$$

  SciTegic03142313312D

 43 48  0  0  1  0            999 V2000
   -1.1978    8.1228    0.0000 C   0  0
    0.1814    7.5331    0.0000 C   0  0  2  0  0  0
    1.3817    8.4328    0.0000 C   0  0
    2.7609    7.8432    0.0000 O   0  0
    2.9399    6.3539    0.0000 C   0  0
    1.7397    5.4542    0.0000 C   0  0
    0.3603    6.0438    0.0000 N   0  0
   -0.8391    5.1417    0.0000 C   0  0
   -2.2193    5.7292    0.0000 N   0  0
   -3.4181    4.8276    0.0000 C   0  0
   -4.7990    5.4153    0.0000 C   0  0
   -4.9828    6.9040    0.0000 C   0  0
   -6.3640    7.4892    0.0000 C   0  0
   -7.5613    6.5858    0.0000 C   0  0
   -8.9444    7.1685    0.0000 N   0  0
  -10.1412    6.2628    0.0000 C   0  0
   -9.9549    4.7744    0.0000 O   0  0
  -11.5243    6.8455    0.0000 N   0  0
  -12.7210    5.9398    0.0000 C   0  0
  -14.1042    6.5201    0.0000 C   0  0
  -15.2985    5.6125    0.0000 C   0  0
  -15.1096    4.1245    0.0000 C   0  0
  -16.3026    3.2139    0.0000 O   0  0
  -16.1115    1.7253    0.0000 C   0  0
  -17.3045    0.8147    0.0000 C   0  0
  -17.1134   -0.6739    0.0000 N   0  0
  -18.3058   -1.5840    0.0000 C   0  0
  -15.7293   -1.2519    0.0000 C   0  0
  -13.7264    3.5440    0.0000 C   0  0
  -12.5322    4.4516    0.0000 C   0  0
   -7.3776    5.0971    0.0000 C   0  0
   -5.9965    4.5118    0.0000 C   0  0
   -3.2367    3.3386    0.0000 N   0  0
   -1.8781    2.7579    0.0000 C   0  0
   -1.0947    1.4779    0.0000 N   0  0
    0.0000    0.6568    0.0000 C   0  0  3  0  0  0
   -0.6568   -0.6386    0.0000 C   0  0
   -1.8063   -1.3319    0.0000 C   0  0
   -0.8393    0.0000    0.0000 C   0  0  3  0  0  0
    0.9488    0.0000    0.0000 C   0  0
    1.8975   -0.8028    0.0000 O   0  0
    1.6421    0.6933    0.0000 C   0  0
   -0.6577    3.6528    0.0000 N   0  0
  2  1  1  6
  2  3  1  0
  3  4  1  0
  4  5  1  0
  5  6  1  0
  6  7  1  0
  7  2  1  0
  7  8  1  0
  8  9  2  0
  9 10  1  0
 10 11  1  0
 11 12  2  0
 12 13  1  0
 13 14  2  0
 14 15  1  0
 15 16  1  0
 16 17  2  0
 16 18  1  0
 18 19  1  0
 19 20  2  0
 20 21  1  0
 21 22  2  0
 22 23  1  0
 23 24  1  0
 24 25  1  0
 25 26  1  0
 26 27  1  0
 26 28  1  0
 22 29  1  0
 29 30  2  0
 30 19  1  0
 14 31  1  0
 31 32  2  0
 32 11  1  0
 10 33  2  0
 33 34  1  0
 34 35  1  0
 35 36  1  0
 36 37  1  4
 37 38  1  0
 39 38  1  4
 39 35  1  0
 39 40  1  0
 40 41  1  0
 41 42  1  0
 42 36  1  0
 34 43  2  0
 43  8  1  0
M  END
> <assay_chembl_id>
CHEMBL1108790

> <assay_description>
Antiproliferative activity against human LNCAP cells

> <document_journal>
Bioorg Med Chem Lett

> <molecule_chembl_id>
CHEMBL1091715

> <standard_value>
12

> <IC50_uM>
0.012

> <Activity>
Yes

> <Canonical_Smiles>
C[C@@H]1COCCN1c1nc(-c2ccc(NC(=O)Nc3ccc(OCCN(C)C)cc3)cc2)nc(N2C3CCC2COC3)n1

$$$$

  SciTegic03142313312D

 36 41  0  0  1  0            999 V2000
  -11.1574   -3.1335    0.0000 C   0  0
  -10.7199   -1.6987    0.0000 C   0  0  2  0  0  0
  -11.7437   -0.6024    0.0000 C   0  0
  -11.3062    0.8323    0.0000 O   0  0
   -9.8449    1.1708    0.0000 C   0  0
   -8.8211    0.0745    0.0000 C   0  0
   -9.2585   -1.3603    0.0000 N   0  0
   -8.2324   -2.4555    0.0000 C   0  0
   -8.6677   -3.8910    0.0000 N   0  0
   -7.6421   -4.9856    0.0000 C   0  0
   -8.0776   -6.4218    0.0000 C   0  0
   -9.5378   -6.7651    0.0000 C   0  0
   -9.9708   -8.2012    0.0000 C   0  0
   -8.9435   -9.2943    0.0000 C   0  0
   -9.3737  -10.7321    0.0000 N   0  0
   -8.3443  -11.8243    0.0000 C   0  0
   -6.8847  -11.4786    0.0000 O   0  0
   -8.7745  -13.2621    0.0000 N   0  0
   -7.7451  -14.3543    0.0000 C   0  0
   -8.1730  -15.7920    0.0000 C   0  0
   -7.1420  -16.8814    0.0000 C   0  0
   -5.6830  -16.5332    0.0000 C   0  0
   -5.2550  -15.0956    0.0000 N   0  0
   -6.2860  -14.0061    0.0000 C   0  0
   -7.4833   -8.9511    0.0000 C   0  0
   -7.0503   -7.5150    0.0000 C   0  0
   -6.1813   -4.6448    0.0000 N   0  0
   -5.7503   -3.2317    0.0000 C   0  0
   -4.5628   -2.3141    0.0000 N   0  0
   -3.8642   -1.1134    0.0000 C   0  0
   -2.4451   -0.7641    0.0000 C   0  0  2  0  0  0
   -3.2310    0.3930    0.0000 C   0  0
   -3.2310   -1.9430    0.0000 C   0  0  1  0  0  0
   -1.8993   -2.3141    0.0000 C   0  0
   -1.2226   -1.1134    0.0000 O   0  0
   -6.7717   -2.1147    0.0000 N   0  0
  2  1  1  6
  2  3  1  0
  3  4  1  0
  4  5  1  0
  5  6  1  0
  6  7  1  0
  7  2  1  0
  7  8  1  0
  8  9  2  0
  9 10  1  0
 10 11  1  0
 11 12  2  0
 12 13  1  0
 13 14  2  0
 14 15  1  0
 15 16  1  0
 16 17  2  0
 16 18  1  0
 18 19  1  0
 19 20  2  0
 20 21  1  0
 21 22  2  0
 22 23  1  0
 23 24  2  0
 24 19  1  0
 14 25  1  0
 25 26  2  0
 26 11  1  0
 10 27  2  0
 27 28  1  0
 28 29  1  0
 29 30  1  0
 31 30  1  6
 31 32  1  0
 33 32  1  1
 33 29  1  0
 33 34  1  0
 34 35  1  0
 35 31  1  0
 28 36  2  0
 36  8  1  0
M  END
> <assay_chembl_id>
CHEMBL1112504

> <assay_description>
Growth inhibition of human LNCAP cells after 3 days by MTS assay

> <document_journal>
Bioorg Med Chem Lett

> <molecule_chembl_id>
CHEMBL1091665

> <standard_value>
250

> <IC50_uM>
0.25

> <Activity>
Yes

> <Canonical_Smiles>
C[C@@H]1COCCN1c1nc(-c2ccc(NC(=O)Nc3cccnc3)cc2)nc(N2C[C@@H]3C[C@H]2CO3)n1

$$$$

  SciTegic03142313312D

 36 40  0  0  1  0            999 V2000
    2.5981   -1.5000    0.0000 C   0  0
    1.2990   -0.7500    0.0000 C   0  0  2  0  0  0
    1.2990    0.7500    0.0000 C   0  0
    0.0000    1.5000    0.0000 O   0  0
   -1.2990    0.7500    0.0000 C   0  0
   -1.2990   -0.7500    0.0000 C   0  0
    0.0000   -1.5000    0.0000 N   0  0
    0.0000   -3.0008    0.0000 C   0  0
   -1.2978   -3.7529    0.0000 N   0  0
   -1.2955   -5.2529    0.0000 C   0  0
   -2.5939   -6.0054    0.0000 C   0  0
   -3.8955   -5.2596    0.0000 C   0  0
   -5.1921   -6.0137    0.0000 C   0  0
   -5.1873   -7.5137    0.0000 C   0  0
   -6.4832   -8.2709    0.0000 N   0  0
   -6.4763   -9.7717    0.0000 C   0  0
   -5.1735  -10.5153    0.0000 O   0  0
   -7.7721  -10.5289    0.0000 N   0  0
   -7.7651  -12.0297    0.0000 C   0  0
   -9.0592  -12.7884    0.0000 C   0  0
   -9.0492  -14.2884    0.0000 C   0  0
   -7.7452  -15.0297    0.0000 C   0  0
   -6.4512  -14.2711    0.0000 N   0  0
   -6.4611  -12.7712    0.0000 C   0  0
   -3.8859   -8.2595    0.0000 C   0  0
   -2.5893   -7.5054    0.0000 C   0  0
    0.0048   -6.0009    0.0000 N   0  0
    1.3026   -5.2488    0.0000 C   0  0
    2.6035   -5.9971    0.0000 N   0  0
    3.9003   -5.2430    0.0000 C   0  0
    5.2017   -5.9889    0.0000 C   0  0
    5.2064   -7.4889    0.0000 O   0  0
    3.9098   -8.2430    0.0000 C   0  0
    2.6084   -7.4972    0.0000 C   0  0  1  0  0  0
    1.3117   -8.2513    0.0000 C   0  0
    1.3002   -3.7488    0.0000 N   0  0
  2  1  1  1
  2  3  1  0
  3  4  1  0
  4  5  1  0
  5  6  1  0
  6  7  1  0
  7  2  1  0
  7  8  1  0
  8  9  2  0
  9 10  1  0
 10 11  1  0
 11 12  2  0
 12 13  1  0
 13 14  2  0
 14 15  1  0
 15 16  1  0
 16 17  2  0
 16 18  1  0
 18 19  1  0
 19 20  2  0
 20 21  1  0
 21 22  2  0
 22 23  1  0
 23 24  2  0
 24 19  1  0
 14 25  1  0
 25 26  2  0
 26 11  1  0
 10 27  2  0
 27 28  1  0
 28 29  1  0
 29 30  1  0
 30 31  1  0
 31 32  1  0
 32 33  1  0
 33 34  1  0
 34 29  1  0
 34 35  1  1
 28 36  2  0
 36  8  1  0
M  END
> <assay_chembl_id>
CHEMBL1112504

> <assay_description>
Growth inhibition of human LNCAP cells after 3 days by MTS assay

> <document_journal>
Bioorg Med Chem Lett

> <molecule_chembl_id>
CHEMBL1091666

> <standard_value>
12

> <IC50_uM>
0.012

> <Activity>
Yes

> <Canonical_Smiles>
C[C@@H]1COCCN1c1nc(-c2ccc(NC(=O)Nc3cccnc3)cc2)nc(N2CCOC[C@H]2C)n1

$$$$

  SciTegic03142313312D

 35 39  0  0  1  0            999 V2000
    2.5981   -1.5000    0.0000 C   0  0
    1.2990   -0.7500    0.0000 C   0  0  2  0  0  0
    1.2990    0.7500    0.0000 C   0  0
    0.0000    1.5000    0.0000 O   0  0
   -1.2990    0.7500    0.0000 C   0  0
   -1.2990   -0.7500    0.0000 C   0  0
    0.0000   -1.5000    0.0000 N   0  0
    0.0000   -3.0008    0.0000 C   0  0
   -1.2978   -3.7529    0.0000 N   0  0
   -1.2955   -5.2529    0.0000 C   0  0
   -2.5939   -6.0054    0.0000 C   0  0
   -3.8955   -5.2596    0.0000 C   0  0
   -5.1921   -6.0137    0.0000 C   0  0
   -5.1873   -7.5137    0.0000 C   0  0
   -6.4832   -8.2709    0.0000 N   0  0
   -6.4763   -9.7717    0.0000 C   0  0
   -5.1735  -10.5153    0.0000 O   0  0
   -7.7721  -10.5289    0.0000 N   0  0
   -7.7651  -12.0297    0.0000 C   0  0
   -9.0592  -12.7884    0.0000 C   0  0
   -9.0492  -14.2884    0.0000 C   0  0
   -7.7452  -15.0297    0.0000 C   0  0
   -6.4512  -14.2711    0.0000 N   0  0
   -6.4611  -12.7712    0.0000 C   0  0
   -3.8859   -8.2595    0.0000 C   0  0
   -2.5893   -7.5054    0.0000 C   0  0
    0.0048   -6.0009    0.0000 N   0  0
    1.3026   -5.2488    0.0000 C   0  0
    2.6035   -5.9971    0.0000 C   0  0
    2.6084   -7.4972    0.0000 C   0  0
    3.9098   -8.2430    0.0000 C   0  0
    5.2064   -7.4889    0.0000 O   0  0
    5.2017   -5.9889    0.0000 C   0  0
    3.9002   -5.2430    0.0000 C   0  0
    1.3002   -3.7488    0.0000 N   0  0
  2  1  1  1
  2  3  1  0
  3  4  1  0
  4  5  1  0
  5  6  1  0
  6  7  1  0
  7  2  1  0
  7  8  1  0
  8  9  2  0
  9 10  1  0
 10 11  1  0
 11 12  2  0
 12 13  1  0
 13 14  2  0
 14 15  1  0
 15 16  1  0
 16 17  2  0
 16 18  1  0
 18 19  1  0
 19 20  2  0
 20 21  1  0
 21 22  2  0
 22 23  1  0
 23 24  2  0
 24 19  1  0
 14 25  1  0
 25 26  2  0
 26 11  1  0
 10 27  2  0
 27 28  1  0
 28 29  1  0
 29 30  1  0
 30 31  1  0
 31 32  1  0
 32 33  1  0
 33 34  1  0
 34 29  1  0
 28 35  2  0
 35  8  1  0
M  END
> <assay_chembl_id>
CHEMBL1112504

> <assay_description>
Growth inhibition of human LNCAP cells after 3 days by MTS assay

> <document_journal>
Bioorg Med Chem Lett

> <molecule_chembl_id>
CHEMBL1092914

> <standard_value>
2

> <IC50_uM>
0.002

> <Activity>
Yes

> <Canonical_Smiles>
C[C@@H]1COCCN1c1nc(-c2ccc(NC(=O)Nc3cccnc3)cc2)nc(C2CCOCC2)n1

$$$$

  SciTegic03142313312D

 36 40  0  0  1  0            999 V2000
    2.5981   -1.5000    0.0000 C   0  0
    1.2990   -0.7500    0.0000 C   0  0  2  0  0  0
    1.2990    0.7500    0.0000 C   0  0
    0.0000    1.5000    0.0000 O   0  0
   -1.2990    0.7500    0.0000 C   0  0
   -1.2990   -0.7500    0.0000 C   0  0
    0.0000   -1.5000    0.0000 N   0  0
    0.0000   -3.0008    0.0000 C   0  0
   -1.2978   -3.7529    0.0000 N   0  0
   -1.2955   -5.2529    0.0000 C   0  0
   -2.5939   -6.0054    0.0000 C   0  0
   -3.8955   -5.2596    0.0000 C   0  0
   -5.1921   -6.0137    0.0000 C   0  0
   -5.1873   -7.5137    0.0000 C   0  0
   -6.4832   -8.2709    0.0000 N   0  0
   -6.4763   -9.7717    0.0000 C   0  0
   -5.1735  -10.5153    0.0000 O   0  0
   -7.7721  -10.5289    0.0000 N   0  0
   -7.7651  -12.0297    0.0000 C   0  0
   -9.0592  -12.7884    0.0000 C   0  0
   -9.0492  -14.2884    0.0000 C   0  0
   -7.7452  -15.0297    0.0000 N   0  0
   -6.4512  -14.2711    0.0000 C   0  0
   -6.4611  -12.7712    0.0000 C   0  0
   -3.8859   -8.2595    0.0000 C   0  0
   -2.5893   -7.5054    0.0000 C   0  0
    0.0048   -6.0009    0.0000 N   0  0
    1.3026   -5.2488    0.0000 C   0  0
    2.6035   -5.9971    0.0000 N   0  0
    3.9003   -5.2430    0.0000 C   0  0
    5.2017   -5.9889    0.0000 C   0  0
    5.2064   -7.4889    0.0000 O   0  0
    3.9098   -8.2430    0.0000 C   0  0
    2.6084   -7.4972    0.0000 C   0  0  1  0  0  0
    1.3117   -8.2513    0.0000 C   0  0
    1.3002   -3.7488    0.0000 N   0  0
  2  1  1  1
  2  3  1  0
  3  4  1  0
  4  5  1  0
  5  6  1  0
  6  7  1  0
  7  2  1  0
  7  8  1  0
  8  9  2  0
  9 10  1  0
 10 11  1  0
 11 12  2  0
 12 13  1  0
 13 14  2  0
 14 15  1  0
 15 16  1  0
 16 17  2  0
 16 18  1  0
 18 19  1  0
 19 20  2  0
 20 21  1  0
 21 22  2  0
 22 23  1  0
 23 24  2  0
 24 19  1  0
 14 25  1  0
 25 26  2  0
 26 11  1  0
 10 27  2  0
 27 28  1  0
 28 29  1  0
 29 30  1  0
 30 31  1  0
 31 32  1  0
 32 33  1  0
 33 34  1  0
 34 29  1  0
 34 35  1  1
 28 36  2  0
 36  8  1  0
M  END
> <assay_chembl_id>
CHEMBL1112504

> <assay_description>
Growth inhibition of human LNCAP cells after 3 days by MTS assay

> <document_journal>
Bioorg Med Chem Lett

> <molecule_chembl_id>
CHEMBL1093181

> <standard_value>
7

> <IC50_uM>
0.007

> <Activity>
Yes

> <Canonical_Smiles>
C[C@@H]1COCCN1c1nc(-c2ccc(NC(=O)Nc3ccncc3)cc2)nc(N2CCOC[C@H]2C)n1

$$$$

  SciTegic03142313312D

 43 48  0  0  1  0            999 V2000
    2.5981   -1.5000    0.0000 C   0  0
    1.2990   -0.7500    0.0000 C   0  0  2  0  0  0
    1.2990    0.7500    0.0000 C   0  0
    0.0000    1.5000    0.0000 O   0  0
   -1.2990    0.7500    0.0000 C   0  0
   -1.2990   -0.7500    0.0000 C   0  0
    0.0000   -1.5000    0.0000 N   0  0
    0.0000   -3.0008    0.0000 C   0  0
   -1.2978   -3.7529    0.0000 N   0  0
   -1.2955   -5.2529    0.0000 C   0  0
   -2.5939   -6.0054    0.0000 C   0  0
   -3.8955   -5.2596    0.0000 C   0  0
   -5.1921   -6.0137    0.0000 C   0  0
   -5.1873   -7.5137    0.0000 C   0  0
   -6.4832   -8.2709    0.0000 N   0  0
   -6.4763   -9.7717    0.0000 C   0  0
   -5.1735  -10.5153    0.0000 O   0  0
   -7.7721  -10.5289    0.0000 N   0  0
   -7.7651  -12.0297    0.0000 C   0  0
   -9.0592  -12.7884    0.0000 C   0  0
   -9.0492  -14.2884    0.0000 C   0  0
   -7.7452  -15.0297    0.0000 C   0  0
   -7.7353  -16.5305    0.0000 N   0  0
   -9.0281  -17.2912    0.0000 C   0  0
   -9.0157  -18.7912    0.0000 C   0  0
   -7.7106  -19.5305    0.0000 N   0  0
   -7.6982  -21.0304    0.0000 C   0  0
   -6.4178  -18.7698    0.0000 C   0  0
   -6.4301  -17.2699    0.0000 C   0  0
   -6.4512  -14.2711    0.0000 N   0  0
   -6.4611  -12.7712    0.0000 C   0  0
   -3.8859   -8.2595    0.0000 C   0  0
   -2.5893   -7.5054    0.0000 C   0  0
    0.0048   -6.0009    0.0000 N   0  0
    1.3026   -5.2488    0.0000 C   0  0
    2.6035   -5.9971    0.0000 N   0  0
    3.9003   -5.2430    0.0000 C   0  0
    5.2017   -5.9889    0.0000 C   0  0
    5.2064   -7.4889    0.0000 O   0  0
    3.9098   -8.2430    0.0000 C   0  0
    2.6084   -7.4972    0.0000 C   0  0  1  0  0  0
    1.3117   -8.2513    0.0000 C   0  0
    1.3002   -3.7488    0.0000 N   0  0
  2  1  1  1
  2  3  1  0
  3  4  1  0
  4  5  1  0
  5  6  1  0
  6  7  1  0
  7  2  1  0
  7  8  1  0
  8  9  2  0
  9 10  1  0
 10 11  1  0
 11 12  2  0
 12 13  1  0
 13 14  2  0
 14 15  1  0
 15 16  1  0
 16 17  2  0
 16 18  1  0
 18 19  1  0
 19 20  2  0
 20 21  1  0
 21 22  2  0
 22 23  1  0
 23 24  1  0
 24 25  1  0
 25 26  1  0
 26 27  1  0
 26 28  1  0
 28 29  1  0
 29 23  1  0
 22 30  1  0
 30 31  2  0
 31 19  1  0
 14 32  1  0
 32 33  2  0
 33 11  1  0
 10 34  2  0
 34 35  1  0
 35 36  1  0
 36 37  1  0
 37 38  1  0
 38 39  1  0
 39 40  1  0
 40 41  1  0
 41 36  1  0
 41 42  1  1
 35 43  2  0
 43  8  1  0
M  END
> <assay_chembl_id>
CHEMBL1112504

> <assay_description>
Growth inhibition of human LNCAP cells after 3 days by MTS assay

> <document_journal>
Bioorg Med Chem Lett

> <molecule_chembl_id>
CHEMBL1092034

> <standard_value>
12

> <IC50_uM>
0.012

> <Activity>
Yes

> <Canonical_Smiles>
C[C@@H]1COCCN1c1nc(-c2ccc(NC(=O)Nc3ccc(N4CCN(C)CC4)nc3)cc2)nc(N2CCOC[C@H]2C)n1

$$$$

  SciTegic03142313312D

 43 48  0  0  1  0            999 V2000
    2.5981   -1.5000    0.0000 C   0  0
    1.2990   -0.7500    0.0000 C   0  0  2  0  0  0
    1.2990    0.7500    0.0000 C   0  0
    0.0000    1.5000    0.0000 O   0  0
   -1.2990    0.7500    0.0000 C   0  0
   -1.2990   -0.7500    0.0000 C   0  0
    0.0000   -1.5000    0.0000 N   0  0
    0.0000   -3.0008    0.0000 C   0  0
   -1.2978   -3.7529    0.0000 N   0  0
   -1.2955   -5.2529    0.0000 C   0  0
   -2.5939   -6.0054    0.0000 C   0  0
   -3.8955   -5.2596    0.0000 C   0  0
   -5.1921   -6.0137    0.0000 C   0  0
   -5.1873   -7.5137    0.0000 C   0  0
   -6.4832   -8.2709    0.0000 N   0  0
   -6.4763   -9.7717    0.0000 C   0  0
   -5.1735  -10.5153    0.0000 O   0  0
   -7.7721  -10.5289    0.0000 N   0  0
   -7.7651  -12.0297    0.0000 C   0  0
   -9.0592  -12.7884    0.0000 C   0  0
   -9.0492  -14.2884    0.0000 C   0  0
   -7.7452  -15.0297    0.0000 C   0  0
   -7.7353  -16.5305    0.0000 N   0  0
   -9.0281  -17.2912    0.0000 C   0  0
   -9.0157  -18.7912    0.0000 C   0  0
   -7.7106  -19.5305    0.0000 N   0  0
   -7.6982  -21.0304    0.0000 C   0  0
   -6.4178  -18.7698    0.0000 C   0  0
   -6.4301  -17.2699    0.0000 C   0  0
   -6.4512  -14.2711    0.0000 C   0  0
   -6.4611  -12.7712    0.0000 C   0  0
   -3.8859   -8.2595    0.0000 C   0  0
   -2.5893   -7.5054    0.0000 C   0  0
    0.0048   -6.0009    0.0000 N   0  0
    1.3026   -5.2488    0.0000 C   0  0
    2.6035   -5.9971    0.0000 N   0  0
    3.9003   -5.2430    0.0000 C   0  0
    5.2017   -5.9889    0.0000 C   0  0
    5.2064   -7.4889    0.0000 O   0  0
    3.9098   -8.2430    0.0000 C   0  0
    2.6084   -7.4972    0.0000 C   0  0  1  0  0  0
    1.3117   -8.2513    0.0000 C   0  0
    1.3002   -3.7488    0.0000 N   0  0
  2  1  1  1
  2  3  1  0
  3  4  1  0
  4  5  1  0
  5  6  1  0
  6  7  1  0
  7  2  1  0
  7  8  1  0
  8  9  2  0
  9 10  1  0
 10 11  1  0
 11 12  2  0
 12 13  1  0
 13 14  2  0
 14 15  1  0
 15 16  1  0
 16 17  2  0
 16 18  1  0
 18 19  1  0
 19 20  2  0
 20 21  1  0
 21 22  2  0
 22 23  1  0
 23 24  1  0
 24 25  1  0
 25 26  1  0
 26 27  1  0
 26 28  1  0
 28 29  1  0
 29 23  1  0
 22 30  1  0
 30 31  2  0
 31 19  1  0
 14 32  1  0
 32 33  2  0
 33 11  1  0
 10 34  2  0
 34 35  1  0
 35 36  1  0
 36 37  1  0
 37 38  1  0
 38 39  1  0
 39 40  1  0
 40 41  1  0
 41 36  1  0
 41 42  1  1
 35 43  2  0
 43  8  1  0
M  END
> <assay_chembl_id>
CHEMBL1112504

> <assay_description>
Growth inhibition of human LNCAP cells after 3 days by MTS assay

> <document_journal>
Bioorg Med Chem Lett

> <molecule_chembl_id>
CHEMBL1092035

> <standard_value>
3

> <IC50_uM>
0.003

> <Activity>
Yes

> <Canonical_Smiles>
C[C@@H]1COCCN1c1nc(-c2ccc(NC(=O)Nc3ccc(N4CCN(C)CC4)cc3)cc2)nc(N2CCOC[C@H]2C)n1

$$$$

  SciTegic03142313312D

 45 50  0  0  1  0            999 V2000
    2.5981   -1.5000    0.0000 C   0  0
    1.2990   -0.7500    0.0000 C   0  0  2  0  0  0
    1.2990    0.7500    0.0000 C   0  0
    0.0000    1.5000    0.0000 O   0  0
   -1.2990    0.7500    0.0000 C   0  0
   -1.2990   -0.7500    0.0000 C   0  0
    0.0000   -1.5000    0.0000 N   0  0
    0.0000   -3.0008    0.0000 C   0  0
   -1.2978   -3.7529    0.0000 N   0  0
   -1.2955   -5.2529    0.0000 C   0  0
   -2.5939   -6.0054    0.0000 C   0  0
   -3.8955   -5.2596    0.0000 C   0  0
   -5.1921   -6.0137    0.0000 C   0  0
   -5.1873   -7.5137    0.0000 C   0  0
   -6.4832   -8.2709    0.0000 N   0  0
   -6.4763   -9.7717    0.0000 C   0  0
   -5.1735  -10.5153    0.0000 O   0  0
   -7.7721  -10.5289    0.0000 N   0  0
   -7.7651  -12.0297    0.0000 C   0  0
   -9.0592  -12.7884    0.0000 C   0  0
   -9.0492  -14.2884    0.0000 C   0  0
   -7.7452  -15.0297    0.0000 C   0  0
   -7.7353  -16.5305    0.0000 N   0  0
   -9.0281  -17.2912    0.0000 C   0  0
   -9.0157  -18.7912    0.0000 C   0  0
   -7.7106  -19.5305    0.0000 C   0  0
   -7.6951  -21.0312    0.0000 N   0  0
   -6.3889  -21.7687    0.0000 C   0  0
   -8.9866  -21.7941    0.0000 C   0  0
   -6.4178  -18.7698    0.0000 C   0  0
   -6.4301  -17.2699    0.0000 C   0  0
   -6.4512  -14.2711    0.0000 C   0  0
   -6.4611  -12.7712    0.0000 C   0  0
   -3.8859   -8.2595    0.0000 C   0  0
   -2.5893   -7.5054    0.0000 C   0  0
    0.0048   -6.0009    0.0000 N   0  0
    1.3026   -5.2488    0.0000 C   0  0
    2.6035   -5.9971    0.0000 N   0  0
    3.9003   -5.2430    0.0000 C   0  0
    5.2017   -5.9889    0.0000 C   0  0
    5.2064   -7.4889    0.0000 O   0  0
    3.9098   -8.2430    0.0000 C   0  0
    2.6084   -7.4972    0.0000 C   0  0  1  0  0  0
    1.3117   -8.2513    0.0000 C   0  0
    1.3002   -3.7488    0.0000 N   0  0
  2  1  1  1
  2  3  1  0
  3  4  1  0
  4  5  1  0
  5  6  1  0
  6  7  1  0
  7  2  1  0
  7  8  1  0
  8  9  2  0
  9 10  1  0
 10 11  1  0
 11 12  2  0
 12 13  1  0
 13 14  2  0
 14 15  1  0
 15 16  1  0
 16 17  2  0
 16 18  1  0
 18 19  1  0
 19 20  2  0
 20 21  1  0
 21 22  2  0
 22 23  1  0
 23 24  1  0
 24 25  1  0
 25 26  1  0
 26 27  1  0
 27 28  1  0
 27 29  1  0
 26 30  1  0
 30 31  1  0
 31 23  1  0
 22 32  1  0
 32 33  2  0
 33 19  1  0
 14 34  1  0
 34 35  2  0
 35 11  1  0
 10 36  2  0
 36 37  1  0
 37 38  1  0
 38 39  1  0
 39 40  1  0
 40 41  1  0
 41 42  1  0
 42 43  1  0
 43 38  1  0
 43 44  1  1
 37 45  2  0
 45  8  1  0
M  END
> <assay_chembl_id>
CHEMBL1112504

> <assay_description>
Growth inhibition of human LNCAP cells after 3 days by MTS assay

> <document_journal>
Bioorg Med Chem Lett

> <molecule_chembl_id>
CHEMBL1092036

> <standard_value>
40

> <IC50_uM>
0.04

> <Activity>
Yes

> <Canonical_Smiles>
C[C@@H]1COCCN1c1nc(-c2ccc(NC(=O)Nc3ccc(N4CCC(N(C)C)CC4)cc3)cc2)nc(N2CCOC[C@H]2C)n1

$$$$

  SciTegic03142313312D

 40 44  0  0  1  0            999 V2000
    2.5981   -1.5000    0.0000 C   0  0
    1.2990   -0.7500    0.0000 C   0  0  2  0  0  0
    1.2990    0.7500    0.0000 C   0  0
    0.0000    1.5000    0.0000 O   0  0
   -1.2990    0.7500    0.0000 C   0  0
   -1.2990   -0.7500    0.0000 C   0  0
    0.0000   -1.5000    0.0000 N   0  0
    0.0000   -3.0008    0.0000 C   0  0
   -1.2978   -3.7529    0.0000 N   0  0
   -1.2955   -5.2529    0.0000 C   0  0
   -2.5939   -6.0054    0.0000 C   0  0
   -3.8955   -5.2596    0.0000 C   0  0
   -5.1921   -6.0137    0.0000 C   0  0
   -5.1873   -7.5137    0.0000 C   0  0
   -6.4832   -8.2709    0.0000 N   0  0
   -6.4763   -9.7717    0.0000 C   0  0
   -5.1735  -10.5153    0.0000 O   0  0
   -7.7721  -10.5289    0.0000 N   0  0
   -7.7651  -12.0297    0.0000 C   0  0
   -9.0592  -12.7884    0.0000 C   0  0
   -9.0492  -14.2884    0.0000 C   0  0
   -7.7452  -15.0297    0.0000 C   0  0
   -7.7322  -16.5305    0.0000 C   0  0
   -6.4264  -17.2704    0.0000 N   0  0
   -6.4134  -18.7704    0.0000 C   0  0
   -5.1337  -16.5096    0.0000 C   0  0
   -6.4512  -14.2711    0.0000 C   0  0
   -6.4611  -12.7712    0.0000 C   0  0
   -3.8859   -8.2595    0.0000 C   0  0
   -2.5893   -7.5054    0.0000 C   0  0
    0.0048   -6.0009    0.0000 N   0  0
    1.3026   -5.2488    0.0000 C   0  0
    2.6035   -5.9971    0.0000 N   0  0
    3.9003   -5.2430    0.0000 C   0  0
    5.2017   -5.9889    0.0000 C   0  0
    5.2064   -7.4889    0.0000 O   0  0
    3.9098   -8.2430    0.0000 C   0  0
    2.6084   -7.4972    0.0000 C   0  0  1  0  0  0
    1.3117   -8.2513    0.0000 C   0  0
    1.3002   -3.7488    0.0000 N   0  0
  2  1  1  1
  2  3  1  0
  3  4  1  0
  4  5  1  0
  5  6  1  0
  6  7  1  0
  7  2  1  0
  7  8  1  0
  8  9  2  0
  9 10  1  0
 10 11  1  0
 11 12  2  0
 12 13  1  0
 13 14  2  0
 14 15  1  0
 15 16  1  0
 16 17  2  0
 16 18  1  0
 18 19  1  0
 19 20  2  0
 20 21  1  0
 21 22  2  0
 22 23  1  0
 23 24  1  0
 24 25  1  0
 24 26  1  0
 22 27  1  0
 27 28  2  0
 28 19  1  0
 14 29  1  0
 29 30  2  0
 30 11  1  0
 10 31  2  0
 31 32  1  0
 32 33  1  0
 33 34  1  0
 34 35  1  0
 35 36  1  0
 36 37  1  0
 37 38  1  0
 38 33  1  0
 38 39  1  1
 32 40  2  0
 40  8  1  0
M  END
> <assay_chembl_id>
CHEMBL1112504

> <assay_description>
Growth inhibition of human LNCAP cells after 3 days by MTS assay

> <document_journal>
Bioorg Med Chem Lett

> <molecule_chembl_id>
CHEMBL1093182

> <standard_value>
21

> <IC50_uM>
0.021

> <Activity>
Yes

> <Canonical_Smiles>
C[C@@H]1COCCN1c1nc(-c2ccc(NC(=O)Nc3ccc(CN(C)C)cc3)cc2)nc(N2CCOC[C@H]2C)n1

$$$$

  SciTegic03142313312D

 42 46  0  0  1  0            999 V2000
    2.5981   -1.5000    0.0000 C   0  0
    1.2990   -0.7500    0.0000 C   0  0  2  0  0  0
    1.2990    0.7500    0.0000 C   0  0
    0.0000    1.5000    0.0000 O   0  0
   -1.2990    0.7500    0.0000 C   0  0
   -1.2990   -0.7500    0.0000 C   0  0
    0.0000   -1.5000    0.0000 N   0  0
    0.0000   -3.0008    0.0000 C   0  0
   -1.2978   -3.7529    0.0000 N   0  0
   -1.2955   -5.2529    0.0000 C   0  0
   -2.5939   -6.0054    0.0000 C   0  0
   -3.8955   -5.2596    0.0000 C   0  0
   -5.1921   -6.0137    0.0000 C   0  0
   -5.1873   -7.5137    0.0000 C   0  0
   -6.4832   -8.2709    0.0000 N   0  0
   -6.4763   -9.7717    0.0000 C   0  0
   -5.1735  -10.5153    0.0000 O   0  0
   -7.7721  -10.5289    0.0000 N   0  0
   -7.7651  -12.0297    0.0000 C   0  0
   -9.0592  -12.7884    0.0000 C   0  0
   -9.0492  -14.2884    0.0000 C   0  0
   -7.7452  -15.0297    0.0000 C   0  0
   -7.7322  -16.5305    0.0000 O   0  0
   -6.4264  -17.2704    0.0000 C   0  0
   -6.4134  -18.7712    0.0000 C   0  0
   -5.1076  -19.5111    0.0000 N   0  0
   -5.0946  -21.0111    0.0000 C   0  0
   -3.8149  -18.7502    0.0000 C   0  0
   -6.4512  -14.2711    0.0000 C   0  0
   -6.4611  -12.7712    0.0000 C   0  0
   -3.8859   -8.2595    0.0000 C   0  0
   -2.5893   -7.5054    0.0000 C   0  0
    0.0048   -6.0009    0.0000 N   0  0
    1.3026   -5.2488    0.0000 C   0  0
    2.6035   -5.9971    0.0000 N   0  0
    3.9003   -5.2430    0.0000 C   0  0
    5.2017   -5.9889    0.0000 C   0  0
    5.2064   -7.4889    0.0000 O   0  0
    3.9098   -8.2430    0.0000 C   0  0
    2.6084   -7.4972    0.0000 C   0  0  1  0  0  0
    1.3117   -8.2513    0.0000 C   0  0
    1.3002   -3.7488    0.0000 N   0  0
  2  1  1  1
  2  3  1  0
  3  4  1  0
  4  5  1  0
  5  6  1  0
  6  7  1  0
  7  2  1  0
  7  8  1  0
  8  9  2  0
  9 10  1  0
 10 11  1  0
 11 12  2  0
 12 13  1  0
 13 14  2  0
 14 15  1  0
 15 16  1  0
 16 17  2  0
 16 18  1  0
 18 19  1  0
 19 20  2  0
 20 21  1  0
 21 22  2  0
 22 23  1  0
 23 24  1  0
 24 25  1  0
 25 26  1  0
 26 27  1  0
 26 28  1  0
 22 29  1  0
 29 30  2  0
 30 19  1  0
 14 31  1  0
 31 32  2  0
 32 11  1  0
 10 33  2  0
 33 34  1  0
 34 35  1  0
 35 36  1  0
 36 37  1  0
 37 38  1  0
 38 39  1  0
 39 40  1  0
 40 35  1  0
 40 41  1  1
 34 42  2  0
 42  8  1  0
M  END
> <assay_chembl_id>
CHEMBL1112504

> <assay_description>
Growth inhibition of human LNCAP cells after 3 days by MTS assay

> <document_journal>
Bioorg Med Chem Lett

> <molecule_chembl_id>
CHEMBL1092037

> <standard_value>
8

> <IC50_uM>
0.008

> <Activity>
Yes

> <Canonical_Smiles>
C[C@@H]1COCCN1c1nc(-c2ccc(NC(=O)Nc3ccc(OCCN(C)C)cc3)cc2)nc(N2CCOC[C@H]2C)n1

$$$$

  SciTegic03142313312D

 47 52  0  0  1  0            999 V2000
    2.5981   -1.5000    0.0000 C   0  0
    1.2990   -0.7500    0.0000 C   0  0  2  0  0  0
    1.2990    0.7500    0.0000 C   0  0
    0.0000    1.5000    0.0000 O   0  0
   -1.2990    0.7500    0.0000 C   0  0
   -1.2990   -0.7500    0.0000 C   0  0
    0.0000   -1.5000    0.0000 N   0  0
    0.0000   -3.0008    0.0000 C   0  0
   -1.2978   -3.7529    0.0000 N   0  0
   -1.2955   -5.2529    0.0000 C   0  0
   -2.5939   -6.0054    0.0000 C   0  0
   -3.8955   -5.2596    0.0000 C   0  0
   -5.1921   -6.0137    0.0000 C   0  0
   -5.1873   -7.5137    0.0000 C   0  0
   -6.4832   -8.2709    0.0000 N   0  0
   -6.4763   -9.7717    0.0000 C   0  0
   -5.1735  -10.5153    0.0000 O   0  0
   -7.7721  -10.5289    0.0000 N   0  0
   -7.7651  -12.0297    0.0000 C   0  0
   -9.0592  -12.7884    0.0000 C   0  0
   -9.0492  -14.2884    0.0000 C   0  0
   -7.7452  -15.0297    0.0000 C   0  0
   -7.7322  -16.5305    0.0000 C   0  0
   -9.0249  -17.2914    0.0000 O   0  0
   -6.4264  -17.2704    0.0000 N   0  0
   -6.4112  -18.7704    0.0000 C   0  0
   -5.1046  -19.5072    0.0000 C   0  0
   -3.8132  -18.7442    0.0000 C   0  0
   -2.5044  -19.4787    0.0000 N   0  0
   -1.2141  -18.7138    0.0000 C   0  0
   -2.4867  -20.9786    0.0000 C   0  0
   -3.8284  -17.2442    0.0000 C   0  0
   -5.1349  -16.5074    0.0000 C   0  0
   -6.4512  -14.2711    0.0000 C   0  0
   -6.4611  -12.7712    0.0000 C   0  0
   -3.8859   -8.2595    0.0000 C   0  0
   -2.5893   -7.5054    0.0000 C   0  0
    0.0048   -6.0009    0.0000 N   0  0
    1.3026   -5.2488    0.0000 C   0  0
    2.6035   -5.9971    0.0000 N   0  0
    3.9003   -5.2430    0.0000 C   0  0
    5.2017   -5.9889    0.0000 C   0  0
    5.2064   -7.4889    0.0000 O   0  0
    3.9098   -8.2430    0.0000 C   0  0
    2.6084   -7.4972    0.0000 C   0  0  1  0  0  0
    1.3117   -8.2513    0.0000 C   0  0
    1.3002   -3.7488    0.0000 N   0  0
  2  1  1  1
  2  3  1  0
  3  4  1  0
  4  5  1  0
  5  6  1  0
  6  7  1  0
  7  2  1  0
  7  8  1  0
  8  9  2  0
  9 10  1  0
 10 11  1  0
 11 12  2  0
 12 13  1  0
 13 14  2  0
 14 15  1  0
 15 16  1  0
 16 17  2  0
 16 18  1  0
 18 19  1  0
 19 20  2  0
 20 21  1  0
 21 22  2  0
 22 23  1  0
 23 24  2  0
 23 25  1  0
 25 26  1  0
 26 27  1  0
 27 28  1  0
 28 29  1  0
 29 30  1  0
 29 31  1  0
 28 32  1  0
 32 33  1  0
 33 25  1  0
 22 34  1  0
 34 35  2  0
 35 19  1  0
 14 36  1  0
 36 37  2  0
 37 11  1  0
 10 38  2  0
 38 39  1  0
 39 40  1  0
 40 41  1  0
 41 42  1  0
 42 43  1  0
 43 44  1  0
 44 45  1  0
 45 40  1  0
 45 46  1  1
 39 47  2  0
 47  8  1  0
M  END
> <assay_chembl_id>
CHEMBL1112504

> <assay_description>
Growth inhibition of human LNCAP cells after 3 days by MTS assay

> <document_journal>
Bioorg Med Chem Lett

> <molecule_chembl_id>
CHEMBL1092039

> <standard_value>
1

> <IC50_uM>
0.001

> <Activity>
Yes

> <Canonical_Smiles>
C[C@@H]1COCCN1c1nc(-c2ccc(NC(=O)Nc3ccc(C(=O)N4CCC(N(C)C)CC4)cc3)cc2)nc(N2CCOC[C@H]2C)n1

$$$$

  SciTegic03142313312D

 42 47  0  0  1  0            999 V2000
    2.5981   -1.5000    0.0000 C   0  0
    1.2990   -0.7500    0.0000 C   0  0  2  0  0  0
    1.2990    0.7500    0.0000 C   0  0
    0.0000    1.5000    0.0000 O   0  0
   -1.2990    0.7500    0.0000 C   0  0
   -1.2990   -0.7500    0.0000 C   0  0
    0.0000   -1.5000    0.0000 N   0  0
    0.0000   -3.0008    0.0000 C   0  0
   -1.2978   -3.7529    0.0000 N   0  0
   -1.2955   -5.2529    0.0000 C   0  0
   -2.5939   -6.0054    0.0000 C   0  0
   -3.8955   -5.2596    0.0000 C   0  0
   -5.1921   -6.0137    0.0000 C   0  0
   -5.1873   -7.5137    0.0000 C   0  0
   -6.4832   -8.2709    0.0000 N   0  0
   -6.4763   -9.7717    0.0000 C   0  0
   -5.1735  -10.5153    0.0000 O   0  0
   -7.7721  -10.5289    0.0000 N   0  0
   -7.7651  -12.0297    0.0000 C   0  0
   -9.0592  -12.7884    0.0000 C   0  0
   -9.0492  -14.2884    0.0000 C   0  0
   -7.7452  -15.0297    0.0000 C   0  0
   -7.7353  -16.5305    0.0000 N   0  0
   -9.0281  -17.2912    0.0000 C   0  0
   -9.0157  -18.7912    0.0000 C   0  0
   -7.7106  -19.5305    0.0000 N   0  0
   -7.6982  -21.0304    0.0000 C   0  0
   -6.4178  -18.7698    0.0000 C   0  0
   -6.4301  -17.2699    0.0000 C   0  0
   -6.4512  -14.2711    0.0000 N   0  0
   -6.4611  -12.7712    0.0000 C   0  0
   -3.8859   -8.2595    0.0000 C   0  0
   -2.5893   -7.5054    0.0000 C   0  0
    0.0048   -6.0009    0.0000 N   0  0
    1.3026   -5.2488    0.0000 C   0  0
    2.6035   -5.9971    0.0000 C   0  0
    2.6084   -7.4972    0.0000 C   0  0
    3.9098   -8.2430    0.0000 C   0  0
    5.2064   -7.4889    0.0000 O   0  0
    5.2017   -5.9889    0.0000 C   0  0
    3.9002   -5.2430    0.0000 C   0  0
    1.3002   -3.7488    0.0000 N   0  0
  2  1  1  1
  2  3  1  0
  3  4  1  0
  4  5  1  0
  5  6  1  0
  6  7  1  0
  7  2  1  0
  7  8  1  0
  8  9  2  0
  9 10  1  0
 10 11  1  0
 11 12  2  0
 12 13  1  0
 13 14  2  0
 14 15  1  0
 15 16  1  0
 16 17  2  0
 16 18  1  0
 18 19  1  0
 19 20  2  0
 20 21  1  0
 21 22  2  0
 22 23  1  0
 23 24  1  0
 24 25  1  0
 25 26  1  0
 26 27  1  0
 26 28  1  0
 28 29  1  0
 29 23  1  0
 22 30  1  0
 30 31  2  0
 31 19  1  0
 14 32  1  0
 32 33  2  0
 33 11  1  0
 10 34  2  0
 34 35  1  0
 35 36  1  0
 36 37  1  0
 37 38  1  0
 38 39  1  0
 39 40  1  0
 40 41  1  0
 41 36  1  0
 35 42  2  0
 42  8  1  0
M  END
> <assay_chembl_id>
CHEMBL1112504

> <assay_description>
Growth inhibition of human LNCAP cells after 3 days by MTS assay

> <document_journal>
Bioorg Med Chem Lett

> <molecule_chembl_id>
CHEMBL1092041

> <standard_value>
40

> <IC50_uM>
0.04

> <Activity>
Yes

> <Canonical_Smiles>
C[C@@H]1COCCN1c1nc(-c2ccc(NC(=O)Nc3ccc(N4CCN(C)CC4)nc3)cc2)nc(C2CCOCC2)n1

$$$$

  SciTegic03142313312D

 42 47  0  0  1  0            999 V2000
    2.5981   -1.5000    0.0000 C   0  0
    1.2990   -0.7500    0.0000 C   0  0  2  0  0  0
    1.2990    0.7500    0.0000 C   0  0
    0.0000    1.5000    0.0000 O   0  0
   -1.2990    0.7500    0.0000 C   0  0
   -1.2990   -0.7500    0.0000 C   0  0
    0.0000   -1.5000    0.0000 N   0  0
    0.0000   -3.0008    0.0000 C   0  0
   -1.2978   -3.7529    0.0000 N   0  0
   -1.2955   -5.2529    0.0000 C   0  0
   -2.5939   -6.0054    0.0000 C   0  0
   -3.8955   -5.2596    0.0000 C   0  0
   -5.1921   -6.0137    0.0000 C   0  0
   -5.1873   -7.5137    0.0000 C   0  0
   -6.4832   -8.2709    0.0000 N   0  0
   -6.4763   -9.7717    0.0000 C   0  0
   -5.1735  -10.5153    0.0000 O   0  0
   -7.7721  -10.5289    0.0000 N   0  0
   -7.7651  -12.0297    0.0000 C   0  0
   -9.0592  -12.7884    0.0000 C   0  0
   -9.0492  -14.2884    0.0000 C   0  0
   -7.7452  -15.0297    0.0000 C   0  0
   -7.7353  -16.5305    0.0000 N   0  0
   -9.0281  -17.2912    0.0000 C   0  0
   -9.0157  -18.7912    0.0000 C   0  0
   -7.7106  -19.5305    0.0000 N   0  0
   -7.6982  -21.0304    0.0000 C   0  0
   -6.4178  -18.7698    0.0000 C   0  0
   -6.4301  -17.2699    0.0000 C   0  0
   -6.4512  -14.2711    0.0000 C   0  0
   -6.4611  -12.7712    0.0000 C   0  0
   -3.8859   -8.2595    0.0000 C   0  0
   -2.5893   -7.5054    0.0000 C   0  0
    0.0048   -6.0009    0.0000 N   0  0
    1.3026   -5.2488    0.0000 C   0  0
    2.6035   -5.9971    0.0000 C   0  0
    2.6084   -7.4972    0.0000 C   0  0
    3.9098   -8.2430    0.0000 C   0  0
    5.2064   -7.4889    0.0000 O   0  0
    5.2017   -5.9889    0.0000 C   0  0
    3.9002   -5.2430    0.0000 C   0  0
    1.3002   -3.7488    0.0000 N   0  0
  2  1  1  1
  2  3  1  0
  3  4  1  0
  4  5  1  0
  5  6  1  0
  6  7  1  0
  7  2  1  0
  7  8  1  0
  8  9  2  0
  9 10  1  0
 10 11  1  0
 11 12  2  0
 12 13  1  0
 13 14  2  0
 14 15  1  0
 15 16  1  0
 16 17  2  0
 16 18  1  0
 18 19  1  0
 19 20  2  0
 20 21  1  0
 21 22  2  0
 22 23  1  0
 23 24  1  0
 24 25  1  0
 25 26  1  0
 26 27  1  0
 26 28  1  0
 28 29  1  0
 29 23  1  0
 22 30  1  0
 30 31  2  0
 31 19  1  0
 14 32  1  0
 32 33  2  0
 33 11  1  0
 10 34  2  0
 34 35  1  0
 35 36  1  0
 36 37  1  0
 37 38  1  0
 38 39  1  0
 39 40  1  0
 40 41  1  0
 41 36  1  0
 35 42  2  0
 42  8  1  0
M  END
> <assay_chembl_id>
CHEMBL1112504

> <assay_description>
Growth inhibition of human LNCAP cells after 3 days by MTS assay

> <document_journal>
Bioorg Med Chem Lett

> <molecule_chembl_id>
CHEMBL1092042

> <standard_value>
1

> <IC50_uM>
0.001

> <Activity>
Yes

> <Canonical_Smiles>
C[C@@H]1COCCN1c1nc(-c2ccc(NC(=O)Nc3ccc(N4CCN(C)CC4)cc3)cc2)nc(C2CCOCC2)n1

$$$$

  SciTegic03142313312D

 41 46  0  0  1  0            999 V2000
    2.5981   -1.5000    0.0000 C   0  0
    1.2990   -0.7500    0.0000 C   0  0  2  0  0  0
    1.2990    0.7500    0.0000 C   0  0
    0.0000    1.5000    0.0000 O   0  0
   -1.2990    0.7500    0.0000 C   0  0
   -1.2990   -0.7500    0.0000 C   0  0
    0.0000   -1.5000    0.0000 N   0  0
    0.0000   -3.0008    0.0000 C   0  0
   -1.2978   -3.7529    0.0000 N   0  0
   -1.2955   -5.2529    0.0000 C   0  0
   -2.5939   -6.0054    0.0000 C   0  0
   -3.8955   -5.2596    0.0000 C   0  0
   -5.1921   -6.0137    0.0000 C   0  0
   -5.1873   -7.5137    0.0000 C   0  0
   -6.4832   -8.2709    0.0000 N   0  0
   -6.4763   -9.7717    0.0000 C   0  0
   -5.1735  -10.5153    0.0000 O   0  0
   -7.7721  -10.5289    0.0000 N   0  0
   -7.7651  -12.0297    0.0000 C   0  0
   -9.0592  -12.7884    0.0000 C   0  0
   -9.0492  -14.2884    0.0000 C   0  0
   -7.7452  -15.0297    0.0000 C   0  0
   -7.7353  -16.5305    0.0000 N   0  0
   -9.0281  -17.2912    0.0000 C   0  0
   -9.0157  -18.7912    0.0000 C   0  0
   -7.7106  -19.5305    0.0000 N   0  0
   -6.4178  -18.7698    0.0000 C   0  0
   -6.4301  -17.2699    0.0000 C   0  0
   -6.4512  -14.2711    0.0000 C   0  0
   -6.4611  -12.7712    0.0000 C   0  0
   -3.8859   -8.2595    0.0000 C   0  0
   -2.5893   -7.5054    0.0000 C   0  0
    0.0048   -6.0009    0.0000 N   0  0
    1.3026   -5.2488    0.0000 C   0  0
    2.6035   -5.9971    0.0000 C   0  0
    2.6084   -7.4972    0.0000 C   0  0
    3.9098   -8.2430    0.0000 C   0  0
    5.2064   -7.4889    0.0000 O   0  0
    5.2017   -5.9889    0.0000 C   0  0
    3.9002   -5.2430    0.0000 C   0  0
    1.3002   -3.7488    0.0000 N   0  0
  2  1  1  1
  2  3  1  0
  3  4  1  0
  4  5  1  0
  5  6  1  0
  6  7  1  0
  7  2  1  0
  7  8  1  0
  8  9  2  0
  9 10  1  0
 10 11  1  0
 11 12  2  0
 12 13  1  0
 13 14  2  0
 14 15  1  0
 15 16  1  0
 16 17  2  0
 16 18  1  0
 18 19  1  0
 19 20  2  0
 20 21  1  0
 21 22  2  0
 22 23  1  0
 23 24  1  0
 24 25  1  0
 25 26  1  0
 26 27  1  0
 27 28  1  0
 28 23  1  0
 22 29  1  0
 29 30  2  0
 30 19  1  0
 14 31  1  0
 31 32  2  0
 32 11  1  0
 10 33  2  0
 33 34  1  0
 34 35  1  0
 35 36  1  0
 36 37  1  0
 37 38  1  0
 38 39  1  0
 39 40  1  0
 40 35  1  0
 34 41  2  0
 41  8  1  0
M  END
> <assay_chembl_id>
CHEMBL1112504

> <assay_description>
Growth inhibition of human LNCAP cells after 3 days by MTS assay

> <document_journal>
Bioorg Med Chem Lett

> <molecule_chembl_id>
CHEMBL1092043

> <standard_value>
2

> <IC50_uM>
0.002

> <Activity>
Yes

> <Canonical_Smiles>
C[C@@H]1COCCN1c1nc(-c2ccc(NC(=O)Nc3ccc(N4CCNCC4)cc3)cc2)nc(C2CCOCC2)n1

$$$$

  SciTegic03142313312D

 44 49  0  0  1  0            999 V2000
    2.5981   -1.5000    0.0000 C   0  0
    1.2990   -0.7500    0.0000 C   0  0  2  0  0  0
    1.2990    0.7500    0.0000 C   0  0
    0.0000    1.5000    0.0000 O   0  0
   -1.2990    0.7500    0.0000 C   0  0
   -1.2990   -0.7500    0.0000 C   0  0
    0.0000   -1.5000    0.0000 N   0  0
    0.0000   -3.0008    0.0000 C   0  0
   -1.2978   -3.7529    0.0000 N   0  0
   -1.2955   -5.2529    0.0000 C   0  0
   -2.5939   -6.0054    0.0000 C   0  0
   -3.8955   -5.2596    0.0000 C   0  0
   -5.1921   -6.0137    0.0000 C   0  0
   -5.1873   -7.5137    0.0000 C   0  0
   -6.4832   -8.2709    0.0000 N   0  0
   -6.4763   -9.7717    0.0000 C   0  0
   -5.1735  -10.5153    0.0000 O   0  0
   -7.7721  -10.5289    0.0000 N   0  0
   -7.7651  -12.0297    0.0000 C   0  0
   -9.0592  -12.7884    0.0000 C   0  0
   -9.0492  -14.2884    0.0000 C   0  0
   -7.7452  -15.0297    0.0000 C   0  0
   -7.7353  -16.5305    0.0000 N   0  0
   -9.0281  -17.2912    0.0000 C   0  0
   -9.0157  -18.7912    0.0000 C   0  0
   -7.7106  -19.5305    0.0000 C   0  0
   -7.6951  -21.0312    0.0000 N   0  0
   -6.3889  -21.7687    0.0000 C   0  0
   -8.9866  -21.7941    0.0000 C   0  0
   -6.4178  -18.7698    0.0000 C   0  0
   -6.4301  -17.2699    0.0000 C   0  0
   -6.4512  -14.2711    0.0000 C   0  0
   -6.4611  -12.7712    0.0000 C   0  0
   -3.8859   -8.2595    0.0000 C   0  0
   -2.5893   -7.5054    0.0000 C   0  0
    0.0048   -6.0009    0.0000 N   0  0
    1.3026   -5.2488    0.0000 C   0  0
    2.6035   -5.9971    0.0000 C   0  0
    2.6084   -7.4972    0.0000 C   0  0
    3.9098   -8.2430    0.0000 C   0  0
    5.2064   -7.4889    0.0000 O   0  0
    5.2017   -5.9889    0.0000 C   0  0
    3.9002   -5.2430    0.0000 C   0  0
    1.3002   -3.7488    0.0000 N   0  0
  2  1  1  1
  2  3  1  0
  3  4  1  0
  4  5  1  0
  5  6  1  0
  6  7  1  0
  7  2  1  0
  7  8  1  0
  8  9  2  0
  9 10  1  0
 10 11  1  0
 11 12  2  0
 12 13  1  0
 13 14  2  0
 14 15  1  0
 15 16  1  0
 16 17  2  0
 16 18  1  0
 18 19  1  0
 19 20  2  0
 20 21  1  0
 21 22  2  0
 22 23  1  0
 23 24  1  0
 24 25  1  0
 25 26  1  0
 26 27  1  0
 27 28  1  0
 27 29  1  0
 26 30  1  0
 30 31  1  0
 31 23  1  0
 22 32  1  0
 32 33  2  0
 33 19  1  0
 14 34  1  0
 34 35  2  0
 35 11  1  0
 10 36  2  0
 36 37  1  0
 37 38  1  0
 38 39  1  0
 39 40  1  0
 40 41  1  0
 41 42  1  0
 42 43  1  0
 43 38  1  0
 37 44  2  0
 44  8  1  0
M  END
> <assay_chembl_id>
CHEMBL1112504

> <assay_description>
Growth inhibition of human LNCAP cells after 3 days by MTS assay

> <document_journal>
Bioorg Med Chem Lett

> <molecule_chembl_id>
CHEMBL1092044

> <standard_value>
16

> <IC50_uM>
0.016

> <Activity>
Yes

> <Canonical_Smiles>
C[C@@H]1COCCN1c1nc(-c2ccc(NC(=O)Nc3ccc(N4CCC(N(C)C)CC4)cc3)cc2)nc(C2CCOCC2)n1

$$$$

  SciTegic03142313312D

 29 33  0  0  1  0            999 V2000
   -1.8114   -5.1333    0.0000 C   0  0
   -2.2130   -3.6880    0.0000 C   0  0
   -3.6655   -3.3136    0.0000 O   0  0
   -1.1612   -2.6174    0.0000 O   0  0
    0.2851   -2.9666    0.0000 C   0  0  2  0  0  0
    0.7499   -4.3804    0.0000 C   0  0
   -0.2673   -5.4828    0.0000 C   0  0
    2.2131   -4.7105    0.0000 O   0  0
    1.7758   -3.1329    0.0000 C   0  0
    2.3947   -1.7666    0.0000 C   0  0
    1.2990   -0.7500    0.0000 C   0  0  1  0  0  0
    1.2990    0.7500    0.0000 C   0  0  2  0  0  0
    2.5981    1.5000    0.0000 C   0  0
    2.5981    3.0000    0.0000 C   0  0
    3.8971    3.7500    0.0000 Cl  0  0
    1.2990    3.7500    0.0000 C   0  0
    1.2990    5.2500    0.0000 C   0  0
    0.0000    6.0000    0.0000 C   0  0
   -0.0001    7.5000    0.0000 O   0  0
   -1.2991    5.2500    0.0000 C   0  0  2  0  0  0
   -2.5927    4.5000    0.0000 C   0  0
   -1.2991    3.7500    0.0000 C   0  0  2  0  0  0
    0.0000    3.0000    0.0000 C   0  0  1  0  0  0
   -1.2991    2.2500    0.0000 C   0  0
    0.0000    1.5000    0.0000 C   0  0  1  0  0  0
   -1.2990    0.7500    0.0000 C   0  0
   -1.2990   -0.7500    0.0000 C   0  0
    0.0000   -1.5000    0.0000 C   0  0  2  0  0  0
   -0.8141   -2.0807    0.0000 C   0  0
  1  2  1  0
  2  3  2  0
  2  4  1  0
  5  4  1  1
  5  6  1  0
  6  7  1  0
  6  8  2  0
  5  9  1  0
  9 10  1  0
 11 10  1  6
 11 12  1  0
 12 13  1  1
 13 14  2  0
 14 15  1  0
 14 16  1  0
 16 17  2  0
 17 18  1  0
 18 19  2  0
 18 20  1  0
 20 21  1  1
 22 21  1  1
 22 20  1  0
 22 23  1  0
 23 16  1  0
 23 24  1  6
 23 25  1  0
 25 12  1  0
 25 26  1  6
 26 27  1  0
 27 28  1  0
 28 11  1  0
 28  5  1  0
 28 29  1  6
M  END
> <assay_chembl_id>
CHEMBL1113409

> <assay_description>
Cytotoxicity against human androgen receptor positive LNCAP cells after 72 hrs by MTT assay

> <document_journal>
Bioorg Med Chem Lett

> <molecule_chembl_id>
CHEMBL139835

> <standard_value>
43000

> <IC50_uM>
43

> <Activity>
No

> <Canonical_Smiles>
CC(=O)O[C@]1(C(C)=O)CC[C@H]2[C@@H]3C=C(Cl)C4=CC(=O)[C@@H]5C[C@@H]5[C@]4(C)[C@H]3CC[C@@]21C

$$$$

  SciTegic03142313312D

 46 53  0  0  1  0            999 V2000
    2.6640   -0.1280    0.0000 C   0  0
    1.2990   -0.7500    0.0000 C   0  0  2  0  0  0
    1.2990    0.7500    0.0000 C   0  0
    0.0000    1.5000    0.0000 C   0  0
   -1.2990    0.7500    0.0000 C   0  0  1  0  0  0
   -1.2990   -0.7500    0.0000 C   0  0  1  0  0  0
   -2.5981   -1.5000    0.0000 C   0  0  1  0  0  0
   -2.5950   -3.0008    0.0000 C   0  0
   -1.2942   -3.7494    0.0000 C   0  0
   -1.2911   -5.2502    0.0000 C   0  0
   -2.5888   -6.0041    0.0000 C   0  0
   -2.5857   -7.5050    0.0000 C   0  0  1  0  0  0
   -1.2836   -8.2497    0.0000 C   0  0
   -1.2774   -9.7497    0.0000 C   0  0
    0.0247  -10.4944    0.0000 C   0  0
    0.0308  -11.9944    0.0000 C   0  0
    1.3329  -12.7391    0.0000 O   0  0
   -1.2652  -12.7497    0.0000 C   0  0
   -2.5673  -12.0050    0.0000 C   0  0
   -2.5734  -10.5050    0.0000 C   0  0  1  0  0  0
   -3.8693  -11.2603    0.0000 C   0  0
   -3.8755   -9.7603    0.0000 C   0  0  1  0  0  0
   -5.1715  -10.5157    0.0000 C   0  0
   -6.4735   -9.7710    0.0000 C   0  0
   -6.4797   -8.2710    0.0000 C   0  0  2  0  0  0
   -7.8421   -8.8986    0.0000 C   0  0
   -7.6113   -7.2954    0.0000 C   0  0  1  0  0  0
   -9.0733   -7.6307    0.0000 O   0  0
   -7.0156   -5.9188    0.0000 C   0  0
   -5.5222   -6.0599    0.0000 C   0  0
   -5.1837   -7.5157    0.0000 C   0  0  1  0  0  0
   -3.8816   -8.2604    0.0000 C   0  0  2  0  0  0
   -3.8971   -0.7500    0.0000 C   0  0
   -3.8971    0.7500    0.0000 C   0  0
   -5.1962    1.5000    0.0000 C   0  0
   -5.1962    3.0000    0.0000 C   0  0
   -6.4952    3.7500    0.0000 O   0  0
   -3.8971    3.7500    0.0000 C   0  0
   -2.5981    3.0000    0.0000 C   0  0
   -2.5981    1.5000    0.0000 C   0  0  2  0  0  0
   -1.2990    2.2500    0.0000 C   0  0
    0.0000   -1.5000    0.0000 C   0  0  2  0  0  0
    0.3326   -2.9571    0.0000 C   0  0
    1.8253   -3.1044    0.0000 C   0  0
    2.4266   -1.7302    0.0000 C   0  0  2  0  0  0
    3.8900   -1.4008    0.0000 O   0  0
  2  1  1  1
  2  3  1  0
  3  4  1  0
  5  4  1  1
  6  5  1  6
  6  7  1  0
  7  8  1  1
  8  9  1  0
  9 10  2  0
 10 11  1  0
 12 11  1  1
 12 13  1  0
 13 14  1  0
 14 15  2  0
 15 16  1  0
 16 17  2  0
 16 18  1  0
 18 19  1  0
 19 20  1  0
 20 14  1  0
 20 21  1  1
 20 22  1  0
 22 23  1  1
 23 24  1  0
 24 25  1  0
 25 26  1  1
 25 27  1  0
 27 28  1  1
 27 29  1  0
 29 30  1  0
 31 30  1  1
 31 25  1  0
 32 31  1  6
 32 12  1  0
 32 22  1  0
  7 33  1  0
 33 34  1  0
 34 35  2  0
 35 36  1  0
 36 37  2  0
 36 38  1  0
 38 39  1  0
 39 40  1  0
 40 34  1  0
 40  5  1  0
 40 41  1  1
  6 42  1  0
 42  2  1  0
 42 43  1  1
 43 44  1  0
 44 45  1  0
 45  2  1  0
 45 46  1  1
M  END
> <assay_chembl_id>
CHEMBL1113409

> <assay_description>
Cytotoxicity against human androgen receptor positive LNCAP cells after 72 hrs by MTT assay

> <document_journal>
Bioorg Med Chem Lett

> <molecule_chembl_id>
CHEMBL1090319

> <standard_value>
30300

> <IC50_uM>
30.3

> <Activity>
No

> <Canonical_Smiles>
C[C@]12CC[C@H]3[C@@H]([C@@H](C/C=C\C[C@H]4CC5=CC(=O)CC[C@]5(C)[C@H]5CC[C@]6(C)[C@@H](O)CC[C@H]6[C@H]45)CC4=CC(=O)CC[C@@]43C)[C@@H]1CC[C@@H]2O

$$$$

  SciTegic03142313312D

 30 34  0  0  0  0            999 V2000
    4.0551   -4.4171    0.0000 F   0  0
    2.5551   -4.4192    0.0000 C   0  0
    1.8073   -5.7196    0.0000 F   0  0
    1.8032   -3.1233    0.0000 C   0  0
    2.4133   -1.7530    0.0000 N   0  0
    1.2990   -0.7500    0.0000 C   0  0
    1.2990    0.7500    0.0000 C   0  0
    0.0000    1.5000    0.0000 C   0  0
   -1.2990    0.7500    0.0000 C   0  0
   -1.2990   -0.7500    0.0000 C   0  0
    0.0000   -1.5000    0.0000 C   0  0
    0.3114   -2.9665    0.0000 N   0  0
   -0.6928   -4.0817    0.0000 C   0  0
   -2.1743   -3.8808    0.0000 N   0  0
   -3.0913   -5.0679    0.0000 C   0  0
   -4.5786   -4.8672    0.0000 N   0  0
   -5.1504   -3.4804    0.0000 C   0  0
   -6.6373   -3.2821    0.0000 C   0  0
   -7.5524   -4.4706    0.0000 O   0  0
   -6.9807   -5.8574    0.0000 C   0  0
   -5.4938   -6.0557    0.0000 C   0  0
   -2.5218   -6.4556    0.0000 N   0  0
   -1.0353   -6.6562    0.0000 C   0  0
   -0.4655   -8.0446    0.0000 N   0  0
   -1.3806   -9.2332    0.0000 C   0  0
   -0.8088  -10.6200    0.0000 C   0  0
    0.6780  -10.8182    0.0000 O   0  0
    1.5931   -9.6297    0.0000 C   0  0
    1.0214   -8.2429    0.0000 C   0  0
   -0.1183   -5.4691    0.0000 N   0  0
  1  2  1  0
  2  3  1  0
  2  4  1  0
  4  5  2  0
  5  6  1  0
  6  7  2  0
  7  8  1  0
  8  9  2  0
  9 10  1  0
 10 11  2  0
 11  6  1  0
 11 12  1  0
 12  4  1  0
 12 13  1  0
 13 14  2  0
 14 15  1  0
 15 16  1  0
 16 17  1  0
 17 18  1  0
 18 19  1  0
 19 20  1  0
 20 21  1  0
 21 16  1  0
 15 22  2  0
 22 23  1  0
 23 24  1  0
 24 25  1  0
 25 26  1  0
 26 27  1  0
 27 28  1  0
 28 29  1  0
 29 24  1  0
 23 30  2  0
 30 13  1  0
M  END
> <assay_chembl_id>
CHEMBL1117045

> <assay_description>
Antiproliferative activity against human LNCAP cells after 3 days by MTS assay

> <document_journal>
Bioorg Med Chem Lett

> <molecule_chembl_id>
CHEMBL586702

> <standard_value>
210

> <IC50_uM>
0.21

> <Activity>
Yes

> <Canonical_Smiles>
FC(F)c1nc2ccccc2n1-c1nc(N2CCOCC2)nc(N2CCOCC2)n1

$$$$

  SciTegic03142313312D

 34 40  0  0  0  0            999 V2000
    4.0551   -4.4171    0.0000 F   0  0
    2.5551   -4.4192    0.0000 C   0  0
    1.8073   -5.7196    0.0000 F   0  0
    1.8032   -3.1233    0.0000 C   0  0
    2.4133   -1.7530    0.0000 N   0  0
    1.2990   -0.7500    0.0000 C   0  0
    1.2990    0.7500    0.0000 C   0  0
    0.0000    1.5000    0.0000 C   0  0
   -1.2990    0.7500    0.0000 C   0  0
   -1.2990   -0.7500    0.0000 C   0  0
    0.0000   -1.5000    0.0000 C   0  0
    0.3114   -2.9665    0.0000 N   0  0
   -0.6928   -4.0817    0.0000 C   0  0
   -2.1743   -3.8808    0.0000 N   0  0
   -3.0913   -5.0679    0.0000 C   0  0
   -4.5786   -4.8672    0.0000 N   0  0
   -5.6078   -4.3271    0.0000 C   0  0
   -6.3403   -2.6960    0.0000 C   0  0  3  0  0  0
   -5.5215   -1.2682    0.0000 C   0  0
   -5.6830   -2.6008    0.0000 C   0  0
   -6.5956   -3.7307    0.0000 C   0  0  3  0  0  0
   -5.9562   -5.2436    0.0000 C   0  0
   -7.7931   -3.0685    0.0000 O   0  0
   -2.5218   -6.4556    0.0000 N   0  0
   -1.0353   -6.6562    0.0000 C   0  0
   -0.4655   -8.0446    0.0000 N   0  0
   -0.4186   -9.2059    0.0000 C   0  0
   -1.4649  -10.6558    0.0000 C   0  0  3  0  0  0
   -3.1108  -10.6606    0.0000 C   0  0
   -1.8760  -10.1342    0.0000 C   0  0
   -0.4412  -10.3596    0.0000 C   0  0  3  0  0  0
    0.5493   -9.0494    0.0000 C   0  0
   -0.4160  -11.7278    0.0000 O   0  0
   -0.1183   -5.4691    0.0000 N   0  0
  1  2  1  0
  2  3  1  0
  2  4  1  0
  4  5  2  0
  5  6  1  0
  6  7  2  0
  7  8  1  0
  8  9  2  0
  9 10  1  0
 10 11  2  0
 11  6  1  0
 11 12  1  0
 12  4  1  0
 12 13  1  0
 13 14  2  0
 14 15  1  0
 15 16  1  0
 16 17  1  0
 18 17  1  4
 18 19  1  0
 19 20  1  0
 21 20  1  4
 21 22  1  0
 22 16  1  0
 21 23  1  0
 23 18  1  0
 15 24  2  0
 24 25  1  0
 25 26  1  0
 26 27  1  0
 28 27  1  4
 28 29  1  0
 29 30  1  0
 31 30  1  4
 31 32  1  0
 32 26  1  0
 31 33  1  0
 33 28  1  0
 25 34  2  0
 34 13  1  0
M  END
> <assay_chembl_id>
CHEMBL1117045

> <assay_description>
Antiproliferative activity against human LNCAP cells after 3 days by MTS assay

> <document_journal>
Bioorg Med Chem Lett

> <molecule_chembl_id>
CHEMBL1088919

> <standard_value>
680

> <IC50_uM>
0.68

> <Activity>
Yes

> <Canonical_Smiles>
FC(F)c1nc2ccccc2n1-c1nc(N2CC3CCC(C2)O3)nc(N2CC3CCC(C2)O3)n1

$$$$

  SciTegic03142313312D

 32 37  0  0  0  0            999 V2000
    4.0551   -4.4171    0.0000 F   0  0
    2.5551   -4.4192    0.0000 C   0  0
    1.8073   -5.7196    0.0000 F   0  0
    1.8032   -3.1233    0.0000 C   0  0
    2.4133   -1.7530    0.0000 N   0  0
    1.2990   -0.7500    0.0000 C   0  0
    1.2990    0.7500    0.0000 C   0  0
    0.0000    1.5000    0.0000 C   0  0
   -1.2990    0.7500    0.0000 C   0  0
   -1.2990   -0.7500    0.0000 C   0  0
    0.0000   -1.5000    0.0000 C   0  0
    0.3114   -2.9665    0.0000 N   0  0
   -0.6928   -4.0817    0.0000 C   0  0
   -2.1743   -3.8808    0.0000 N   0  0
   -3.0913   -5.0679    0.0000 C   0  0
   -4.5786   -4.8672    0.0000 N   0  0
   -5.1504   -3.4804    0.0000 C   0  0
   -6.6373   -3.2821    0.0000 C   0  0
   -7.5524   -4.4706    0.0000 O   0  0
   -6.9807   -5.8574    0.0000 C   0  0
   -5.4938   -6.0557    0.0000 C   0  0
   -2.5218   -6.4556    0.0000 N   0  0
   -1.0353   -6.6562    0.0000 C   0  0
   -0.4655   -8.0446    0.0000 N   0  0
   -0.4186   -9.2059    0.0000 C   0  0
   -1.4649  -10.6558    0.0000 C   0  0  3  0  0  0
   -3.1108  -10.6606    0.0000 C   0  0
   -1.8760  -10.1342    0.0000 C   0  0
   -0.4412  -10.3596    0.0000 C   0  0  3  0  0  0
    0.5493   -9.0494    0.0000 C   0  0
   -0.4160  -11.7278    0.0000 O   0  0
   -0.1183   -5.4691    0.0000 N   0  0
  1  2  1  0
  2  3  1  0
  2  4  1  0
  4  5  2  0
  5  6  1  0
  6  7  2  0
  7  8  1  0
  8  9  2  0
  9 10  1  0
 10 11  2  0
 11  6  1  0
 11 12  1  0
 12  4  1  0
 12 13  1  0
 13 14  2  0
 14 15  1  0
 15 16  1  0
 16 17  1  0
 17 18  1  0
 18 19  1  0
 19 20  1  0
 20 21  1  0
 21 16  1  0
 15 22  2  0
 22 23  1  0
 23 24  1  0
 24 25  1  0
 26 25  1  4
 26 27  1  0
 27 28  1  0
 29 28  1  4
 29 30  1  0
 30 24  1  0
 29 31  1  0
 31 26  1  0
 23 32  2  0
 32 13  1  0
M  END
> <assay_chembl_id>
CHEMBL1117045

> <assay_description>
Antiproliferative activity against human LNCAP cells after 3 days by MTS assay

> <document_journal>
Bioorg Med Chem Lett

> <molecule_chembl_id>
CHEMBL1089219

> <standard_value>
180

> <IC50_uM>
0.18

> <Activity>
Yes

> <Canonical_Smiles>
FC(F)c1nc2ccccc2n1-c1nc(N2CCOCC2)nc(N2CC3CCC(C2)O3)n1

$$$$

  SciTegic03142313312D

 33 38  0  0  0  0            999 V2000
   11.3430  -10.2059    0.0000 C   0  0
   11.1829   -8.7145    0.0000 N   0  0
    9.8109   -8.1062    0.0000 C   0  0
    8.5990   -8.9902    0.0000 O   0  0
    9.6508   -6.6139    0.0000 N   0  0
    8.2787   -6.0056    0.0000 C   0  0
    8.1165   -4.5144    0.0000 C   0  0
    6.7440   -3.9093    0.0000 C   0  0
    5.5336   -4.7953    0.0000 C   0  0
    4.1594   -4.1920    0.0000 C   0  0
    3.9949   -2.7011    0.0000 N   0  0
    2.6417   -2.1061    0.0000 C   0  0
    1.8975   -0.8028    0.0000 N   0  0
    0.9488    0.0000    0.0000 C   0  0
   -0.8393    0.0000    0.0000 C   0  0  3  0  0  0
   -1.8063   -1.3319    0.0000 C   0  0
   -0.6568   -0.6386    0.0000 C   0  0
    0.0000    0.6568    0.0000 C   0  0  3  0  0  0
    1.6421    0.6933    0.0000 C   0  0
   -1.0947    1.4779    0.0000 O   0  0
    1.4125   -2.9861    0.0000 N   0  0
    1.5770   -4.4770    0.0000 C   0  0
    0.3675   -5.3655    0.0000 N   0  0
   -0.7481   -5.6916    0.0000 C   0  0
   -2.4079   -5.0267    0.0000 C   0  0  3  0  0  0
   -2.8102   -3.4307    0.0000 C   0  0
   -2.0010   -4.5017    0.0000 C   0  0
   -1.8730   -5.9485    0.0000 C   0  0  3  0  0  0
   -0.3623   -6.5930    0.0000 C   0  0
   -3.1946   -6.3036    0.0000 O   0  0
    2.9505   -5.0800    0.0000 N   0  0
    5.6959   -6.2866    0.0000 C   0  0
    7.0684   -6.8917    0.0000 C   0  0
  1  2  1  0
  2  3  1  0
  3  4  2  0
  3  5  1  0
  5  6  1  0
  6  7  2  0
  7  8  1  0
  8  9  2  0
  9 10  1  0
 10 11  2  0
 11 12  1  0
 12 13  1  0
 13 14  1  0
 15 14  1  4
 15 16  1  0
 16 17  1  0
 18 17  1  4
 18 19  1  0
 19 13  1  0
 18 20  1  0
 20 15  1  0
 12 21  2  0
 21 22  1  0
 22 23  1  0
 23 24  1  0
 25 24  1  4
 25 26  1  0
 26 27  1  0
 28 27  1  4
 28 29  1  0
 29 23  1  0
 28 30  1  0
 30 25  1  0
 22 31  2  0
 31 10  1  0
  9 32  1  0
 32 33  2  0
 33  6  1  0
M  END
> <assay_chembl_id>
CHEMBL1117045

> <assay_description>
Antiproliferative activity against human LNCAP cells after 3 days by MTS assay

> <document_journal>
Bioorg Med Chem Lett

> <molecule_chembl_id>
CHEMBL1092642

> <standard_value>
190

> <IC50_uM>
0.19

> <Activity>
Yes

> <Canonical_Smiles>
CNC(=O)Nc1ccc(-c2nc(N3CC4CCC(C3)O4)nc(N3CC4CCC(C3)O4)n2)cc1

$$$$

  SciTegic03142313312D

 34 39  0  0  0  0            999 V2000
   12.7143  -10.8147    0.0000 C   0  0
   11.3431  -10.2068    0.0000 C   0  0
   11.1829   -8.7145    0.0000 N   0  0
    9.8109   -8.1062    0.0000 C   0  0
    8.5990   -8.9902    0.0000 O   0  0
    9.6508   -6.6139    0.0000 N   0  0
    8.2787   -6.0056    0.0000 C   0  0
    8.1165   -4.5144    0.0000 C   0  0
    6.7440   -3.9093    0.0000 C   0  0
    5.5336   -4.7953    0.0000 C   0  0
    4.1594   -4.1920    0.0000 C   0  0
    3.9949   -2.7011    0.0000 N   0  0
    2.6417   -2.1061    0.0000 C   0  0
    1.8975   -0.8028    0.0000 N   0  0
    0.9488    0.0000    0.0000 C   0  0
   -0.8393    0.0000    0.0000 C   0  0  3  0  0  0
   -1.8063   -1.3319    0.0000 C   0  0
   -0.6568   -0.6386    0.0000 C   0  0
    0.0000    0.6568    0.0000 C   0  0  3  0  0  0
    1.6421    0.6933    0.0000 C   0  0
   -1.0947    1.4779    0.0000 O   0  0
    1.4125   -2.9861    0.0000 N   0  0
    1.5770   -4.4770    0.0000 C   0  0
    0.3675   -5.3655    0.0000 N   0  0
   -0.7481   -5.6916    0.0000 C   0  0
   -2.4079   -5.0267    0.0000 C   0  0  3  0  0  0
   -2.8102   -3.4307    0.0000 C   0  0
   -2.0010   -4.5017    0.0000 C   0  0
   -1.8730   -5.9485    0.0000 C   0  0  3  0  0  0
   -0.3623   -6.5930    0.0000 C   0  0
   -3.1946   -6.3036    0.0000 O   0  0
    2.9505   -5.0800    0.0000 N   0  0
    5.6959   -6.2866    0.0000 C   0  0
    7.0684   -6.8917    0.0000 C   0  0
  1  2  1  0
  2  3  1  0
  3  4  1  0
  4  5  2  0
  4  6  1  0
  6  7  1  0
  7  8  2  0
  8  9  1  0
  9 10  2  0
 10 11  1  0
 11 12  2  0
 12 13  1  0
 13 14  1  0
 14 15  1  0
 16 15  1  4
 16 17  1  0
 17 18  1  0
 19 18  1  4
 19 20  1  0
 20 14  1  0
 19 21  1  0
 21 16  1  0
 13 22  2  0
 22 23  1  0
 23 24  1  0
 24 25  1  0
 26 25  1  4
 26 27  1  0
 27 28  1  0
 29 28  1  4
 29 30  1  0
 30 24  1  0
 29 31  1  0
 31 26  1  0
 23 32  2  0
 32 11  1  0
 10 33  1  0
 33 34  2  0
 34  7  1  0
M  END
> <assay_chembl_id>
CHEMBL1117045

> <assay_description>
Antiproliferative activity against human LNCAP cells after 3 days by MTS assay

> <document_journal>
Bioorg Med Chem Lett

> <molecule_chembl_id>
CHEMBL1092908

> <standard_value>
180

> <IC50_uM>
0.18

> <Activity>
Yes

> <Canonical_Smiles>
CCNC(=O)Nc1ccc(-c2nc(N3CC4CCC(C3)O4)nc(N3CC4CCC(C3)O4)n2)cc1

$$$$

  SciTegic03142313312D

 35 41  0  0  0  0            999 V2000
    8.5990   -8.9902    0.0000 O   0  0
    9.8109   -8.1062    0.0000 C   0  0
    9.6508   -6.6139    0.0000 N   0  0
    8.2787   -6.0056    0.0000 C   0  0
    8.1165   -4.5144    0.0000 C   0  0
    6.7440   -3.9093    0.0000 C   0  0
    5.5336   -4.7953    0.0000 C   0  0
    4.1594   -4.1920    0.0000 C   0  0
    3.9949   -2.7011    0.0000 N   0  0
    2.6417   -2.1061    0.0000 C   0  0
    1.8975   -0.8028    0.0000 N   0  0
    0.9488    0.0000    0.0000 C   0  0
   -0.8393    0.0000    0.0000 C   0  0  3  0  0  0
   -1.8063   -1.3319    0.0000 C   0  0
   -0.6568   -0.6386    0.0000 C   0  0
    0.0000    0.6568    0.0000 C   0  0  3  0  0  0
    1.6421    0.6933    0.0000 C   0  0
   -1.0947    1.4779    0.0000 O   0  0
    1.4125   -2.9861    0.0000 N   0  0
    1.5770   -4.4770    0.0000 C   0  0
    0.3675   -5.3655    0.0000 N   0  0
   -0.7481   -5.6916    0.0000 C   0  0
   -2.4079   -5.0267    0.0000 C   0  0  3  0  0  0
   -2.8102   -3.4307    0.0000 C   0  0
   -2.0010   -4.5017    0.0000 C   0  0
   -1.8730   -5.9485    0.0000 C   0  0  3  0  0  0
   -0.3623   -6.5930    0.0000 C   0  0
   -3.1946   -6.3036    0.0000 O   0  0
    2.9505   -5.0800    0.0000 N   0  0
    5.6959   -6.2866    0.0000 C   0  0
    7.0684   -6.8917    0.0000 C   0  0
   11.1829   -8.7145    0.0000 N   0  0
   11.3431  -10.2068    0.0000 C   0  0
   12.2153  -11.3293    0.0000 C   0  0
   10.7235  -11.4862    0.0000 C   0  0
  1  2  2  0
  2  3  1  0
  3  4  1  0
  4  5  2  0
  5  6  1  0
  6  7  2  0
  7  8  1  0
  8  9  2  0
  9 10  1  0
 10 11  1  0
 11 12  1  0
 13 12  1  4
 13 14  1  0
 14 15  1  0
 16 15  1  4
 16 17  1  0
 17 11  1  0
 16 18  1  0
 18 13  1  0
 10 19  2  0
 19 20  1  0
 20 21  1  0
 21 22  1  0
 23 22  1  4
 23 24  1  0
 24 25  1  0
 26 25  1  4
 26 27  1  0
 27 21  1  0
 26 28  1  0
 28 23  1  0
 20 29  2  0
 29  8  1  0
  7 30  1  0
 30 31  2  0
 31  4  1  0
  2 32  1  0
 32 33  1  0
 33 34  1  0
 34 35  1  0
 35 33  1  0
M  END
> <assay_chembl_id>
CHEMBL1117045

> <assay_description>
Antiproliferative activity against human LNCAP cells after 3 days by MTS assay

> <document_journal>
Bioorg Med Chem Lett

> <molecule_chembl_id>
CHEMBL1092909

> <standard_value>
90

> <IC50_uM>
0.09

> <Activity>
Yes

> <Canonical_Smiles>
O=C(Nc1ccc(-c2nc(N3CC4CCC(C3)O4)nc(N3CC4CCC(C3)O4)n2)cc1)NC1CC1

$$$$

  SciTegic03142313312D

 38 44  0  0  0  0            999 V2000
    8.5990   -8.9902    0.0000 O   0  0
    9.8109   -8.1062    0.0000 C   0  0
   11.1829   -8.7145    0.0000 N   0  0
   11.3431  -10.2068    0.0000 C   0  0
   12.7135  -10.8167    0.0000 C   0  0
   12.8705  -12.3085    0.0000 C   0  0
   11.6571  -13.1904    0.0000 N   0  0
   10.2867  -12.5805    0.0000 C   0  0
   10.1297  -11.0887    0.0000 C   0  0
    9.6508   -6.6139    0.0000 N   0  0
    8.2787   -6.0056    0.0000 C   0  0
    8.1165   -4.5144    0.0000 C   0  0
    6.7440   -3.9093    0.0000 C   0  0
    5.5336   -4.7953    0.0000 C   0  0
    4.1594   -4.1920    0.0000 C   0  0
    3.9949   -2.7011    0.0000 N   0  0
    2.6417   -2.1061    0.0000 C   0  0
    1.8975   -0.8028    0.0000 N   0  0
    0.9488    0.0000    0.0000 C   0  0
   -0.8393    0.0000    0.0000 C   0  0  3  0  0  0
   -1.8063   -1.3319    0.0000 C   0  0
   -0.6568   -0.6386    0.0000 C   0  0
    0.0000    0.6568    0.0000 C   0  0  3  0  0  0
    1.6421    0.6933    0.0000 C   0  0
   -1.0947    1.4779    0.0000 O   0  0
    1.4125   -2.9861    0.0000 N   0  0
    1.5770   -4.4770    0.0000 C   0  0
    0.3675   -5.3655    0.0000 N   0  0
   -0.7481   -5.6916    0.0000 C   0  0
   -2.4079   -5.0267    0.0000 C   0  0  3  0  0  0
   -2.8102   -3.4307    0.0000 C   0  0
   -2.0010   -4.5017    0.0000 C   0  0
   -1.8730   -5.9485    0.0000 C   0  0  3  0  0  0
   -0.3623   -6.5930    0.0000 C   0  0
   -3.1946   -6.3036    0.0000 O   0  0
    2.9505   -5.0800    0.0000 N   0  0
    5.6959   -6.2866    0.0000 C   0  0
    7.0684   -6.8917    0.0000 C   0  0
  1  2  2  0
  2  3  1  0
  3  4  1  0
  4  5  2  0
  5  6  1  0
  6  7  2  0
  7  8  1  0
  8  9  2  0
  9  4  1  0
  2 10  1  0
 10 11  1  0
 11 12  2  0
 12 13  1  0
 13 14  2  0
 14 15  1  0
 15 16  2  0
 16 17  1  0
 17 18  1  0
 18 19  1  0
 20 19  1  4
 20 21  1  0
 21 22  1  0
 23 22  1  4
 23 24  1  0
 24 18  1  0
 23 25  1  0
 25 20  1  0
 17 26  2  0
 26 27  1  0
 27 28  1  0
 28 29  1  0
 30 29  1  4
 30 31  1  0
 31 32  1  0
 33 32  1  4
 33 34  1  0
 34 28  1  0
 33 35  1  0
 35 30  1  0
 27 36  2  0
 36 15  1  0
 14 37  1  0
 37 38  2  0
 38 11  1  0
M  END
> <assay_chembl_id>
CHEMBL1117045

> <assay_description>
Antiproliferative activity against human LNCAP cells after 3 days by MTS assay

> <document_journal>
Bioorg Med Chem Lett

> <molecule_chembl_id>
CHEMBL1092653

> <standard_value>
45

> <IC50_uM>
0.045

> <Activity>
Yes

> <Canonical_Smiles>
O=C(Nc1ccncc1)Nc1ccc(-c2nc(N3CC4CCC(C3)O4)nc(N3CC4CCC(C3)O4)n2)cc1

$$$$

  SciTegic03142313312D

 45 52  0  0  0  0            999 V2000
   12.2782  -19.1590    0.0000 C   0  0
   12.1235  -17.6670    0.0000 N   0  0
   13.3383  -16.7871    0.0000 C   0  0
   13.1837  -15.2951    0.0000 C   0  0
   11.8142  -14.6829    0.0000 N   0  0
   11.6571  -13.1904    0.0000 C   0  0
   12.8705  -12.3085    0.0000 C   0  0
   12.7135  -10.8167    0.0000 C   0  0
   11.3431  -10.2068    0.0000 C   0  0
   11.1829   -8.7145    0.0000 N   0  0
    9.8109   -8.1062    0.0000 C   0  0
    8.5990   -8.9902    0.0000 O   0  0
    9.6508   -6.6139    0.0000 N   0  0
    8.2787   -6.0056    0.0000 C   0  0
    8.1165   -4.5144    0.0000 C   0  0
    6.7440   -3.9093    0.0000 C   0  0
    5.5336   -4.7953    0.0000 C   0  0
    4.1594   -4.1920    0.0000 C   0  0
    3.9949   -2.7011    0.0000 N   0  0
    2.6417   -2.1061    0.0000 C   0  0
    1.8975   -0.8028    0.0000 N   0  0
    0.9488    0.0000    0.0000 C   0  0
   -0.8393    0.0000    0.0000 C   0  0  3  0  0  0
   -1.8063   -1.3319    0.0000 C   0  0
   -0.6568   -0.6386    0.0000 C   0  0
    0.0000    0.6568    0.0000 C   0  0  3  0  0  0
    1.6421    0.6933    0.0000 C   0  0
   -1.0947    1.4779    0.0000 O   0  0
    1.4125   -2.9861    0.0000 N   0  0
    1.5770   -4.4770    0.0000 C   0  0
    0.3675   -5.3655    0.0000 N   0  0
   -0.7481   -5.6916    0.0000 C   0  0
   -2.4079   -5.0267    0.0000 C   0  0  3  0  0  0
   -2.8102   -3.4307    0.0000 C   0  0
   -2.0010   -4.5017    0.0000 C   0  0
   -1.8730   -5.9485    0.0000 C   0  0  3  0  0  0
   -0.3623   -6.5930    0.0000 C   0  0
   -3.1946   -6.3036    0.0000 O   0  0
    2.9505   -5.0800    0.0000 N   0  0
    5.6959   -6.2866    0.0000 C   0  0
    7.0684   -6.8917    0.0000 C   0  0
   10.1297  -11.0887    0.0000 C   0  0
   10.2867  -12.5805    0.0000 C   0  0
   10.5994  -15.5629    0.0000 C   0  0
   10.7541  -17.0549    0.0000 C   0  0
  1  2  1  0
  2  3  1  0
  3  4  1  0
  4  5  1  0
  5  6  1  0
  6  7  2  0
  7  8  1  0
  8  9  2  0
  9 10  1  0
 10 11  1  0
 11 12  2  0
 11 13  1  0
 13 14  1  0
 14 15  2  0
 15 16  1  0
 16 17  2  0
 17 18  1  0
 18 19  2  0
 19 20  1  0
 20 21  1  0
 21 22  1  0
 23 22  1  4
 23 24  1  0
 24 25  1  0
 26 25  1  4
 26 27  1  0
 27 21  1  0
 26 28  1  0
 28 23  1  0
 20 29  2  0
 29 30  1  0
 30 31  1  0
 31 32  1  0
 33 32  1  4
 33 34  1  0
 34 35  1  0
 36 35  1  4
 36 37  1  0
 37 31  1  0
 36 38  1  0
 38 33  1  0
 30 39  2  0
 39 18  1  0
 17 40  1  0
 40 41  2  0
 41 14  1  0
  9 42  1  0
 42 43  2  0
 43  6  1  0
  5 44  1  0
 44 45  1  0
 45  2  1  0
M  END
> <assay_chembl_id>
CHEMBL1117045

> <assay_description>
Antiproliferative activity against human LNCAP cells after 3 days by MTS assay

> <document_journal>
Bioorg Med Chem Lett

> <molecule_chembl_id>
CHEMBL1088970

> <standard_value>
2.3

> <IC50_uM>
0.0023

> <Activity>
Yes

> <Canonical_Smiles>
CN1CCN(c2ccc(NC(=O)Nc3ccc(-c4nc(N5CC6CCC(C5)O6)nc(N5CC6CCC(C5)O6)n4)cc3)cc2)CC1

$$$$

  SciTegic03142313312D

 43 50  0  0  1  0            999 V2000
  -21.5366  -14.8279    0.0000 C   0  0
  -20.0736  -14.4968    0.0000 N   0  0
  -19.0553  -15.5982    0.0000 C   0  0
  -17.5923  -15.2671    0.0000 C   0  0
  -17.1475  -13.8345    0.0000 N   0  0
  -15.6843  -13.5009    0.0000 C   0  0
  -14.6642  -14.6007    0.0000 C   0  0
  -13.2018  -14.2673    0.0000 C   0  0
  -12.7592  -12.8340    0.0000 C   0  0
  -11.2966  -12.4974    0.0000 N   0  0
  -10.8559  -11.0628    0.0000 C   0  0
  -11.8778   -9.9647    0.0000 O   0  0
   -9.3933  -10.7262    0.0000 N   0  0
   -8.9526   -9.2915    0.0000 C   0  0
   -7.4913   -8.9530    0.0000 C   0  0
   -7.0538   -7.5182    0.0000 C   0  0
   -8.0776   -6.4218    0.0000 C   0  0
   -7.6421   -4.9856    0.0000 C   0  0
   -6.1813   -4.6448    0.0000 N   0  0
   -5.7503   -3.2317    0.0000 C   0  0
   -4.5628   -2.3141    0.0000 N   0  0
   -3.8642   -1.1134    0.0000 C   0  0
   -2.4451   -0.7641    0.0000 C   0  0  1  0  0  0
   -3.2310    0.3930    0.0000 C   0  0
   -3.2310   -1.9430    0.0000 C   0  0  2  0  0  0
   -1.8993   -2.3141    0.0000 C   0  0
   -1.2226   -1.1134    0.0000 O   0  0
   -6.7717   -2.1147    0.0000 N   0  0
   -8.2324   -2.4555    0.0000 C   0  0
   -9.2585   -1.3603    0.0000 N   0  0
  -10.4603   -0.8462    0.0000 C   0  0
  -10.9459    0.5322    0.0000 C   0  0  1  0  0  0
  -12.0211   -0.3625    0.0000 C   0  0
   -9.6962   -0.1355    0.0000 C   0  0  2  0  0  0
   -9.4562    1.2260    0.0000 C   0  0
  -10.7170    1.7829    0.0000 O   0  0
   -8.6677   -3.8910    0.0000 N   0  0
   -9.5389   -6.7604    0.0000 C   0  0
   -9.9764   -8.1952    0.0000 C   0  0
  -13.7793  -11.7342    0.0000 C   0  0
  -15.2418  -12.0676    0.0000 C   0  0
  -18.1658  -12.7331    0.0000 C   0  0
  -19.6288  -13.0642    0.0000 C   0  0
  1  2  1  0
  2  3  1  0
  3  4  1  0
  4  5  1  0
  5  6  1  0
  6  7  2  0
  7  8  1  0
  8  9  2  0
  9 10  1  0
 10 11  1  0
 11 12  2  0
 11 13  1  0
 13 14  1  0
 14 15  2  0
 15 16  1  0
 16 17  2  0
 17 18  1  0
 18 19  2  0
 19 20  1  0
 20 21  1  0
 21 22  1  0
 23 22  1  1
 23 24  1  0
 25 24  1  6
 25 21  1  0
 25 26  1  0
 26 27  1  0
 27 23  1  0
 20 28  2  0
 28 29  1  0
 29 30  1  0
 30 31  1  0
 32 31  1  1
 32 33  1  0
 34 33  1  6
 34 30  1  0
 34 35  1  0
 35 36  1  0
 36 32  1  0
 29 37  2  0
 37 18  1  0
 17 38  1  0
 38 39  2  0
 39 14  1  0
  9 40  1  0
 40 41  2  0
 41  6  1  0
  5 42  1  0
 42 43  1  0
 43  2  1  0
M  END
> <assay_chembl_id>
CHEMBL1117045

> <assay_description>
Antiproliferative activity against human LNCAP cells after 3 days by MTS assay

> <document_journal>
Bioorg Med Chem Lett

> <molecule_chembl_id>
CHEMBL1088971

> <standard_value>
550

> <IC50_uM>
0.55

> <Activity>
Yes

> <Canonical_Smiles>
CN1CCN(c2ccc(NC(=O)Nc3ccc(-c4nc(N5C[C@H]6C[C@@H]5CO6)nc(N5C[C@H]6C[C@@H]5CO6)n4)cc3)cc2)CC1

$$$$

  SciTegic03142313312D

 43 50  0  0  1  0            999 V2000
  -21.5366  -14.8279    0.0000 C   0  0
  -20.0736  -14.4968    0.0000 N   0  0
  -19.0553  -15.5982    0.0000 C   0  0
  -17.5923  -15.2671    0.0000 C   0  0
  -17.1475  -13.8345    0.0000 N   0  0
  -15.6843  -13.5009    0.0000 C   0  0
  -14.6642  -14.6007    0.0000 C   0  0
  -13.2018  -14.2673    0.0000 C   0  0
  -12.7592  -12.8340    0.0000 C   0  0
  -11.2966  -12.4974    0.0000 N   0  0
  -10.8559  -11.0628    0.0000 C   0  0
  -11.8778   -9.9647    0.0000 O   0  0
   -9.3933  -10.7262    0.0000 N   0  0
   -8.9526   -9.2915    0.0000 C   0  0
   -7.4913   -8.9530    0.0000 C   0  0
   -7.0538   -7.5182    0.0000 C   0  0
   -8.0776   -6.4218    0.0000 C   0  0
   -7.6421   -4.9856    0.0000 C   0  0
   -6.1813   -4.6448    0.0000 N   0  0
   -5.7503   -3.2317    0.0000 C   0  0
   -4.5628   -2.3141    0.0000 N   0  0
   -3.8642   -1.1134    0.0000 C   0  0
   -2.4451   -0.7641    0.0000 C   0  0  2  0  0  0
   -3.2310    0.3930    0.0000 C   0  0
   -3.2310   -1.9430    0.0000 C   0  0  1  0  0  0
   -1.8993   -2.3141    0.0000 C   0  0
   -1.2226   -1.1134    0.0000 O   0  0
   -6.7717   -2.1147    0.0000 N   0  0
   -8.2324   -2.4555    0.0000 C   0  0
   -9.2585   -1.3603    0.0000 N   0  0
  -10.4603   -0.8462    0.0000 C   0  0
  -10.9459    0.5322    0.0000 C   0  0  2  0  0  0
  -12.0211   -0.3625    0.0000 C   0  0
   -9.6962   -0.1355    0.0000 C   0  0  1  0  0  0
   -9.4562    1.2260    0.0000 C   0  0
  -10.7170    1.7829    0.0000 O   0  0
   -8.6677   -3.8910    0.0000 N   0  0
   -9.5389   -6.7604    0.0000 C   0  0
   -9.9764   -8.1952    0.0000 C   0  0
  -13.7793  -11.7342    0.0000 C   0  0
  -15.2418  -12.0676    0.0000 C   0  0
  -18.1658  -12.7331    0.0000 C   0  0
  -19.6288  -13.0642    0.0000 C   0  0
  1  2  1  0
  2  3  1  0
  3  4  1  0
  4  5  1  0
  5  6  1  0
  6  7  2  0
  7  8  1  0
  8  9  2  0
  9 10  1  0
 10 11  1  0
 11 12  2  0
 11 13  1  0
 13 14  1  0
 14 15  2  0
 15 16  1  0
 16 17  2  0
 17 18  1  0
 18 19  2  0
 19 20  1  0
 20 21  1  0
 21 22  1  0
 23 22  1  6
 23 24  1  0
 25 24  1  1
 25 21  1  0
 25 26  1  0
 26 27  1  0
 27 23  1  0
 20 28  2  0
 28 29  1  0
 29 30  1  0
 30 31  1  0
 32 31  1  6
 32 33  1  0
 34 33  1  1
 34 30  1  0
 34 35  1  0
 35 36  1  0
 36 32  1  0
 29 37  2  0
 37 18  1  0
 17 38  1  0
 38 39  2  0
 39 14  1  0
  9 40  1  0
 40 41  2  0
 41  6  1  0
  5 42  1  0
 42 43  1  0
 43  2  1  0
M  END
> <assay_chembl_id>
CHEMBL1117045

> <assay_description>
Antiproliferative activity against human LNCAP cells after 3 days by MTS assay

> <document_journal>
Bioorg Med Chem Lett

> <molecule_chembl_id>
CHEMBL1088972

> <standard_value>
80

> <IC50_uM>
0.08

> <Activity>
Yes

> <Canonical_Smiles>
CN1CCN(c2ccc(NC(=O)Nc3ccc(-c4nc(N5C[C@@H]6C[C@H]5CO6)nc(N5C[C@@H]6C[C@H]5CO6)n4)cc3)cc2)CC1

$$$$

  SciTegic03142313312D

 47 53  0  0  0  0            999 V2000
    5.1855   -6.0062    0.0000 C   0  0
    6.4870   -5.2605    0.0000 N   0  0
    6.4915   -3.7597    0.0000 C   0  0
    7.7931   -3.0140    0.0000 O   0  0
    5.1945   -3.0045    0.0000 C   0  0
    5.1969   -1.5045    0.0000 C   0  0
    3.8991   -0.7525    0.0000 C   0  0
    2.5987   -1.5004    0.0000 N   0  0
    1.2990   -0.7500    0.0000 C   0  0
    1.2990    0.7500    0.0000 C   0  0
    0.0000    1.5000    0.0000 C   0  0
   -1.2990    0.7500    0.0000 N   0  0
   -1.2990   -0.7500    0.0000 C   0  0
    0.0000   -1.5000    0.0000 C   0  0
   -0.3114   -2.9665    0.0000 C   0  0
    0.6890   -4.0818    0.0000 C   0  0
    0.2235   -5.5086    0.0000 C   0  0
   -1.1979   -5.9466    0.0000 O   0  0
   -1.2025   -7.4458    0.0000 C   0  0
   -2.3205   -8.4459    0.0000 C   0  0
   -2.0135   -9.9141    0.0000 C   0  0
   -0.5884  -10.3823    0.0000 C   0  0
   -0.2782  -11.8507    0.0000 N   0  0
    1.1483  -12.3172    0.0000 C   0  0
    2.2646  -11.3152    0.0000 O   0  0
    1.4585  -13.7856    0.0000 N   0  0
    2.8850  -14.2520    0.0000 C   0  0
    3.1972  -15.7192    0.0000 C   0  0
    4.6239  -16.1825    0.0000 C   0  0
    5.7385  -15.1786    0.0000 C   0  0
    5.4263  -13.7114    0.0000 N   0  0
    3.9997  -13.2481    0.0000 C   0  0
    0.5296   -9.3823    0.0000 C   0  0
    0.2225   -7.9141    0.0000 C   0  0
    1.1079   -6.7042    0.0000 C   0  0
    2.6079   -6.7004    0.0000 O   0  0
   -1.8032   -3.1233    0.0000 C   0  0
   -2.4133   -1.7530    0.0000 N   0  0
   -3.8805   -1.4410    0.0000 C   0  0
    2.5965   -3.0004    0.0000 C   0  0
    3.8943   -3.7525    0.0000 C   0  0
    7.7840   -6.0157    0.0000 C   0  0
    7.7817   -7.5157    0.0000 C   0  0
    9.0795   -8.2678    0.0000 C   0  0
   10.3798   -7.5199    0.0000 C   0  0
   10.3822   -6.0199    0.0000 N   0  0
    9.0844   -5.2678    0.0000 C   0  0
  1  2  1  0
  2  3  1  0
  3  4  2  0
  3  5  1  0
  5  6  1  0
  6  7  1  0
  7  8  1  0
  8  9  1  0
  9 10  2  0
 10 11  1  0
 11 12  2  0
 12 13  1  0
 13 14  2  0
 14  9  1  0
 14 15  1  0
 15 16  1  0
 16 17  2  0
 17 18  1  0
 18 19  1  0
 19 20  2  0
 20 21  1  0
 21 22  2  0
 22 23  1  0
 23 24  1  0
 24 25  2  0
 24 26  1  0
 26 27  1  0
 27 28  2  0
 28 29  1  0
 29 30  2  0
 30 31  1  0
 31 32  2  0
 32 27  1  0
 22 33  1  0
 33 34  2  0
 34 19  1  0
 34 35  1  0
 35 17  1  0
 35 36  2  0
 15 37  2  0
 37 38  1  0
 38 13  1  0
 38 39  1  0
  8 40  1  0
 40 41  1  0
 41  5  1  0
  2 42  1  0
 42 43  2  0
 43 44  1  0
 44 45  2  0
 45 46  1  0
 46 47  2  0
 47 42  1  0
M  END
> <assay_chembl_id>
CHEMBL1107896

> <assay_description>
Antiproliferative activity against human LNCAP cells

> <document_journal>
Bioorg Med Chem Lett

> <molecule_chembl_id>
CHEMBL1091708

> <standard_value>
300

> <IC50_uM>
0.3

> <Activity>
Yes

> <Canonical_Smiles>
CN(C(=O)C1CCN(c2ccnc3c2c(/C=C2\Oc4ccc(NC(=O)Nc5cccnc5)cc4C2=O)cn3C)CC1)c1cccnc1

$$$$

  SciTegic03142313312D

 48 54  0  0  0  0            999 V2000
    5.1855   -6.0062    0.0000 C   0  0
    6.4870   -5.2605    0.0000 N   0  0
    7.7840   -6.0157    0.0000 C   0  0
    7.7795   -7.5165    0.0000 C   0  0
    9.0747   -8.2731    0.0000 C   0  0
    9.0672   -9.7731    0.0000 C   0  0
    7.7644  -10.5165    0.0000 C   0  0
    6.4691   -9.7600    0.0000 C   0  0
    6.4767   -8.2600    0.0000 C   0  0
    6.4915   -3.7597    0.0000 C   0  0
    7.7931   -3.0140    0.0000 O   0  0
    5.1945   -3.0045    0.0000 C   0  0
    5.1969   -1.5045    0.0000 C   0  0
    3.8991   -0.7525    0.0000 C   0  0
    2.5987   -1.5004    0.0000 N   0  0
    1.2990   -0.7500    0.0000 C   0  0
    1.2990    0.7500    0.0000 C   0  0
    0.0000    1.5000    0.0000 C   0  0
   -1.2990    0.7500    0.0000 N   0  0
   -1.2990   -0.7500    0.0000 C   0  0
    0.0000   -1.5000    0.0000 C   0  0
   -0.3114   -2.9665    0.0000 C   0  0
    0.6890   -4.0818    0.0000 C   0  0
    0.2235   -5.5086    0.0000 C   0  0
   -1.1979   -5.9466    0.0000 O   0  0
   -1.2025   -7.4458    0.0000 C   0  0
   -2.3205   -8.4459    0.0000 C   0  0
   -2.0135   -9.9141    0.0000 C   0  0
   -0.5884  -10.3823    0.0000 C   0  0
   -0.2782  -11.8507    0.0000 N   0  0
    1.1483  -12.3172    0.0000 C   0  0
    2.2646  -11.3152    0.0000 O   0  0
    1.4585  -13.7856    0.0000 N   0  0
    2.8850  -14.2520    0.0000 C   0  0
    3.1972  -15.7192    0.0000 C   0  0
    4.6239  -16.1825    0.0000 C   0  0
    5.7385  -15.1786    0.0000 C   0  0
    5.4263  -13.7114    0.0000 N   0  0
    3.9997  -13.2481    0.0000 C   0  0
    0.5296   -9.3823    0.0000 C   0  0
    0.2225   -7.9141    0.0000 C   0  0
    1.1079   -6.7042    0.0000 C   0  0
    2.6079   -6.7004    0.0000 O   0  0
   -1.8032   -3.1233    0.0000 C   0  0
   -2.4133   -1.7530    0.0000 N   0  0
   -3.8805   -1.4410    0.0000 C   0  0
    2.5965   -3.0004    0.0000 C   0  0
    3.8943   -3.7525    0.0000 C   0  0
  1  2  1  0
  2  3  1  0
  3  4  1  0
  4  5  2  0
  5  6  1  0
  6  7  2  0
  7  8  1  0
  8  9  2  0
  9  4  1  0
  2 10  1  0
 10 11  2  0
 10 12  1  0
 12 13  1  0
 13 14  1  0
 14 15  1  0
 15 16  1  0
 16 17  2  0
 17 18  1  0
 18 19  2  0
 19 20  1  0
 20 21  2  0
 21 16  1  0
 21 22  1  0
 22 23  1  0
 23 24  2  0
 24 25  1  0
 25 26  1  0
 26 27  2  0
 27 28  1  0
 28 29  2  0
 29 30  1  0
 30 31  1  0
 31 32  2  0
 31 33  1  0
 33 34  1  0
 34 35  2  0
 35 36  1  0
 36 37  2  0
 37 38  1  0
 38 39  2  0
 39 34  1  0
 29 40  1  0
 40 41  2  0
 41 26  1  0
 41 42  1  0
 42 24  1  0
 42 43  2  0
 22 44  2  0
 44 45  1  0
 45 20  1  0
 45 46  1  0
 15 47  1  0
 47 48  1  0
 48 12  1  0
M  END
> <assay_chembl_id>
CHEMBL1107896

> <assay_description>
Antiproliferative activity against human LNCAP cells

> <document_journal>
Bioorg Med Chem Lett

> <molecule_chembl_id>
CHEMBL1091707

> <standard_value>
20

> <IC50_uM>
0.02

> <Activity>
Yes

> <Canonical_Smiles>
CN(Cc1ccccc1)C(=O)C1CCN(c2ccnc3c2c(/C=C2\Oc4ccc(NC(=O)Nc5cccnc5)cc4C2=O)cn3C)CC1

$$$$

  SciTegic03142313312D

 48 54  0  0  0  0            999 V2000
    5.1855   -6.0062    0.0000 C   0  0
    6.4870   -5.2605    0.0000 N   0  0
    7.7840   -6.0157    0.0000 C   0  0
    7.7795   -7.5165    0.0000 C   0  0
    9.0747   -8.2731    0.0000 C   0  0
    9.0672   -9.7731    0.0000 C   0  0
    7.7644  -10.5165    0.0000 C   0  0
    6.4691   -9.7600    0.0000 C   0  0
    6.4767   -8.2600    0.0000 N   0  0
    6.4915   -3.7597    0.0000 C   0  0
    7.7931   -3.0140    0.0000 O   0  0
    5.1945   -3.0045    0.0000 C   0  0
    5.1969   -1.5045    0.0000 C   0  0
    3.8991   -0.7525    0.0000 C   0  0
    2.5987   -1.5004    0.0000 N   0  0
    1.2990   -0.7500    0.0000 C   0  0
    1.2990    0.7500    0.0000 C   0  0
    0.0000    1.5000    0.0000 C   0  0
   -1.2990    0.7500    0.0000 N   0  0
   -1.2990   -0.7500    0.0000 C   0  0
    0.0000   -1.5000    0.0000 C   0  0
   -0.3114   -2.9665    0.0000 C   0  0
    0.6890   -4.0818    0.0000 C   0  0
    0.2235   -5.5086    0.0000 C   0  0
   -1.1979   -5.9466    0.0000 O   0  0
   -1.2025   -7.4458    0.0000 C   0  0
   -2.3205   -8.4459    0.0000 C   0  0
   -2.0135   -9.9141    0.0000 C   0  0
   -0.5884  -10.3823    0.0000 C   0  0
   -0.2782  -11.8507    0.0000 N   0  0
    1.1483  -12.3172    0.0000 C   0  0
    2.2646  -11.3152    0.0000 O   0  0
    1.4585  -13.7856    0.0000 N   0  0
    2.8850  -14.2520    0.0000 C   0  0
    3.1972  -15.7192    0.0000 C   0  0
    4.6239  -16.1825    0.0000 C   0  0
    5.7385  -15.1786    0.0000 C   0  0
    5.4263  -13.7114    0.0000 N   0  0
    3.9997  -13.2481    0.0000 C   0  0
    0.5296   -9.3823    0.0000 C   0  0
    0.2225   -7.9141    0.0000 C   0  0
    1.1079   -6.7042    0.0000 C   0  0
    2.6079   -6.7004    0.0000 O   0  0
   -1.8032   -3.1233    0.0000 C   0  0
   -2.4133   -1.7530    0.0000 N   0  0
   -3.8805   -1.4410    0.0000 C   0  0
    2.5965   -3.0004    0.0000 C   0  0
    3.8943   -3.7525    0.0000 C   0  0
  1  2  1  0
  2  3  1  0
  3  4  1  0
  4  5  2  0
  5  6  1  0
  6  7  2  0
  7  8  1  0
  8  9  2  0
  9  4  1  0
  2 10  1  0
 10 11  2  0
 10 12  1  0
 12 13  1  0
 13 14  1  0
 14 15  1  0
 15 16  1  0
 16 17  2  0
 17 18  1  0
 18 19  2  0
 19 20  1  0
 20 21  2  0
 21 16  1  0
 21 22  1  0
 22 23  1  0
 23 24  2  0
 24 25  1  0
 25 26  1  0
 26 27  2  0
 27 28  1  0
 28 29  2  0
 29 30  1  0
 30 31  1  0
 31 32  2  0
 31 33  1  0
 33 34  1  0
 34 35  2  0
 35 36  1  0
 36 37  2  0
 37 38  1  0
 38 39  2  0
 39 34  1  0
 29 40  1  0
 40 41  2  0
 41 26  1  0
 41 42  1  0
 42 24  1  0
 42 43  2  0
 22 44  2  0
 44 45  1  0
 45 20  1  0
 45 46  1  0
 15 47  1  0
 47 48  1  0
 48 12  1  0
M  END
> <assay_chembl_id>
CHEMBL1107896

> <assay_description>
Antiproliferative activity against human LNCAP cells

> <document_journal>
Bioorg Med Chem Lett

> <molecule_chembl_id>
CHEMBL1091706

> <standard_value>
40

> <IC50_uM>
0.04

> <Activity>
Yes

> <Canonical_Smiles>
CN(Cc1ccccn1)C(=O)C1CCN(c2ccnc3c2c(/C=C2\Oc4ccc(NC(=O)Nc5cccnc5)cc4C2=O)cn3C)CC1

$$$$

  SciTegic03142313312D

 48 54  0  0  0  0            999 V2000
    5.1855   -6.0062    0.0000 C   0  0
    6.4870   -5.2605    0.0000 N   0  0
    7.7840   -6.0157    0.0000 C   0  0
    7.7795   -7.5165    0.0000 C   0  0
    9.0747   -8.2731    0.0000 C   0  0
    9.0672   -9.7731    0.0000 C   0  0
    7.7644  -10.5165    0.0000 N   0  0
    6.4691   -9.7600    0.0000 C   0  0
    6.4767   -8.2600    0.0000 C   0  0
    6.4915   -3.7597    0.0000 C   0  0
    7.7931   -3.0140    0.0000 O   0  0
    5.1945   -3.0045    0.0000 C   0  0
    5.1969   -1.5045    0.0000 C   0  0
    3.8991   -0.7525    0.0000 C   0  0
    2.5987   -1.5004    0.0000 N   0  0
    1.2990   -0.7500    0.0000 C   0  0
    1.2990    0.7500    0.0000 C   0  0
    0.0000    1.5000    0.0000 C   0  0
   -1.2990    0.7500    0.0000 N   0  0
   -1.2990   -0.7500    0.0000 C   0  0
    0.0000   -1.5000    0.0000 C   0  0
   -0.3114   -2.9665    0.0000 C   0  0
    0.6890   -4.0818    0.0000 C   0  0
    0.2235   -5.5086    0.0000 C   0  0
   -1.1979   -5.9466    0.0000 O   0  0
   -1.2025   -7.4458    0.0000 C   0  0
   -2.3205   -8.4459    0.0000 C   0  0
   -2.0135   -9.9141    0.0000 C   0  0
   -0.5884  -10.3823    0.0000 C   0  0
   -0.2782  -11.8507    0.0000 N   0  0
    1.1483  -12.3172    0.0000 C   0  0
    2.2646  -11.3152    0.0000 O   0  0
    1.4585  -13.7856    0.0000 N   0  0
    2.8850  -14.2520    0.0000 C   0  0
    3.1972  -15.7192    0.0000 C   0  0
    4.6239  -16.1825    0.0000 C   0  0
    5.7385  -15.1786    0.0000 C   0  0
    5.4263  -13.7114    0.0000 N   0  0
    3.9997  -13.2481    0.0000 C   0  0
    0.5296   -9.3823    0.0000 C   0  0
    0.2225   -7.9141    0.0000 C   0  0
    1.1079   -6.7042    0.0000 C   0  0
    2.6079   -6.7004    0.0000 O   0  0
   -1.8032   -3.1233    0.0000 C   0  0
   -2.4133   -1.7530    0.0000 N   0  0
   -3.8805   -1.4410    0.0000 C   0  0
    2.5965   -3.0004    0.0000 C   0  0
    3.8943   -3.7525    0.0000 C   0  0
  1  2  1  0
  2  3  1  0
  3  4  1  0
  4  5  2  0
  5  6  1  0
  6  7  2  0
  7  8  1  0
  8  9  2  0
  9  4  1  0
  2 10  1  0
 10 11  2  0
 10 12  1  0
 12 13  1  0
 13 14  1  0
 14 15  1  0
 15 16  1  0
 16 17  2  0
 17 18  1  0
 18 19  2  0
 19 20  1  0
 20 21  2  0
 21 16  1  0
 21 22  1  0
 22 23  1  0
 23 24  2  0
 24 25  1  0
 25 26  1  0
 26 27  2  0
 27 28  1  0
 28 29  2  0
 29 30  1  0
 30 31  1  0
 31 32  2  0
 31 33  1  0
 33 34  1  0
 34 35  2  0
 35 36  1  0
 36 37  2  0
 37 38  1  0
 38 39  2  0
 39 34  1  0
 29 40  1  0
 40 41  2  0
 41 26  1  0
 41 42  1  0
 42 24  1  0
 42 43  2  0
 22 44  2  0
 44 45  1  0
 45 20  1  0
 45 46  1  0
 15 47  1  0
 47 48  1  0
 48 12  1  0
M  END
> <assay_chembl_id>
CHEMBL1107896

> <assay_description>
Antiproliferative activity against human LNCAP cells

> <document_journal>
Bioorg Med Chem Lett

> <molecule_chembl_id>
CHEMBL1091705

> <standard_value>
23

> <IC50_uM>
0.023

> <Activity>
Yes

> <Canonical_Smiles>
CN(Cc1ccncc1)C(=O)C1CCN(c2ccnc3c2c(/C=C2\Oc4ccc(NC(=O)Nc5cccnc5)cc4C2=O)cn3C)CC1

$$$$

  SciTegic03142313312D

 47 53  0  0  0  0            999 V2000
   -0.6923   -4.0811    0.0000 C   0  0
    0.3114   -2.9665    0.0000 N   0  0
    1.8032   -3.1233    0.0000 C   0  0
    2.4133   -1.7530    0.0000 C   0  0
    3.8794   -1.4442    0.0000 C   0  0
    4.8823   -2.5608    0.0000 C   0  0
    4.5510   -4.0107    0.0000 O   0  0
    5.8470   -4.7643    0.0000 C   0  0
    6.1541   -6.2326    0.0000 C   0  0
    7.5791   -6.7008    0.0000 C   0  0
    8.6971   -5.7008    0.0000 C   0  0
   10.1239   -6.1663    0.0000 N   0  0
   11.2411   -5.1641    0.0000 C   0  0
   10.9315   -3.6964    0.0000 O   0  0
   12.6679   -5.6297    0.0000 N   0  0
   13.7851   -4.6275    0.0000 C   0  0
   15.2119   -5.0907    0.0000 C   0  0
   16.3264   -4.0868    0.0000 C   0  0
   16.0143   -2.6196    0.0000 C   0  0
   14.5876   -2.1564    0.0000 N   0  0
   13.4731   -3.1602    0.0000 C   0  0
    8.3901   -4.2325    0.0000 C   0  0
    6.9650   -3.7643    0.0000 C   0  0
    6.3600   -2.3926    0.0000 C   0  0
    7.1067   -1.0917    0.0000 O   0  0
    1.2990   -0.7500    0.0000 C   0  0
    1.2990    0.7500    0.0000 C   0  0
    2.5987    1.5004    0.0000 N   0  0
    3.8991    0.7525    0.0000 C   0  0
    5.1969    1.5046    0.0000 C   0  0
    5.1945    3.0046    0.0000 C   0  0
    6.4915    3.7597    0.0000 C   0  0
    7.7930    3.0141    0.0000 O   0  0
    6.4870    5.2606    0.0000 N   0  0
    7.7840    6.0157    0.0000 C   0  0
    7.7795    7.5165    0.0000 C   0  0
    9.0747    8.2732    0.0000 C   0  0
    9.0671    9.7732    0.0000 C   0  0
    7.7643   10.5166    0.0000 C   0  0
    6.4691    9.7600    0.0000 N   0  0
    6.4766    8.2600    0.0000 C   0  0
    3.8943    3.7525    0.0000 C   0  0
    2.5964    3.0004    0.0000 C   0  0
    0.0000    1.5000    0.0000 C   0  0
   -1.2990    0.7500    0.0000 C   0  0
   -1.2990   -0.7500    0.0000 N   0  0
    0.0000   -1.5000    0.0000 C   0  0
  1  2  1  0
  2  3  1  0
  3  4  2  0
  4  5  1  0
  5  6  2  0
  6  7  1  0
  7  8  1  0
  8  9  2  0
  9 10  1  0
 10 11  2  0
 11 12  1  0
 12 13  1  0
 13 14  2  0
 13 15  1  0
 15 16  1  0
 16 17  2  0
 17 18  1  0
 18 19  2  0
 19 20  1  0
 20 21  2  0
 21 16  1  0
 11 22  1  0
 22 23  2  0
 23  8  1  0
 23 24  1  0
 24  6  1  0
 24 25  2  0
  4 26  1  0
 26 27  2  0
 27 28  1  0
 28 29  1  0
 29 30  1  0
 30 31  1  0
 31 32  1  0
 32 33  2  0
 32 34  1  0
 34 35  1  0
 35 36  1  0
 36 37  2  0
 37 38  1  0
 38 39  2  0
 39 40  1  0
 40 41  2  0
 41 36  1  0
 31 42  1  0
 42 43  1  0
 43 28  1  0
 27 44  1  0
 44 45  2  0
 45 46  1  0
 46 47  2  0
 47 26  1  0
 47  2  1  0
M  END
> <assay_chembl_id>
CHEMBL1107896

> <assay_description>
Antiproliferative activity against human LNCAP cells

> <document_journal>
Bioorg Med Chem Lett

> <molecule_chembl_id>
CHEMBL1091703

> <standard_value>
60000

> <IC50_uM>
60

> <Activity>
No

> <Canonical_Smiles>
Cn1cc(/C=C2\Oc3ccc(NC(=O)Nc4cccnc4)cc3C2=O)c2c(N3CCC(C(=O)NCc4cccnc4)CC3)ccnc21

$$$$

  SciTegic03142313312D

 46 52  0  0  0  0            999 V2000
    3.3454   -8.5824    0.0000 C   0  0
    4.8362   -8.7489    0.0000 O   0  0
    5.7254   -7.5431    0.0000 C   0  0  3  0  0  0
    7.2254   -7.5507    0.0000 C   0  0
    7.6962   -6.1265    0.0000 C   0  0
    6.4870   -5.2605    0.0000 N   0  0
    6.4915   -3.7597    0.0000 C   0  0
    7.7931   -3.0140    0.0000 O   0  0
    5.1945   -3.0045    0.0000 C   0  0
    5.1969   -1.5045    0.0000 C   0  0
    3.8991   -0.7525    0.0000 C   0  0
    2.5987   -1.5004    0.0000 N   0  0
    1.2990   -0.7500    0.0000 C   0  0
    1.2990    0.7500    0.0000 C   0  0
    0.0000    1.5000    0.0000 C   0  0
   -1.2990    0.7500    0.0000 N   0  0
   -1.2990   -0.7500    0.0000 C   0  0
    0.0000   -1.5000    0.0000 C   0  0
   -0.3114   -2.9665    0.0000 C   0  0
    0.6890   -4.0818    0.0000 C   0  0
    0.2235   -5.5086    0.0000 C   0  0
   -1.1979   -5.9466    0.0000 O   0  0
   -1.2025   -7.4458    0.0000 C   0  0
   -2.3205   -8.4459    0.0000 C   0  0
   -2.0135   -9.9141    0.0000 C   0  0
   -0.5884  -10.3823    0.0000 C   0  0
   -0.2782  -11.8507    0.0000 N   0  0
    1.1483  -12.3172    0.0000 C   0  0
    2.2646  -11.3152    0.0000 O   0  0
    1.4585  -13.7856    0.0000 N   0  0
    2.8850  -14.2520    0.0000 C   0  0
    3.1972  -15.7192    0.0000 C   0  0
    4.6239  -16.1825    0.0000 C   0  0
    5.7385  -15.1786    0.0000 C   0  0
    5.4263  -13.7114    0.0000 N   0  0
    3.9997  -13.2481    0.0000 C   0  0
    0.5296   -9.3823    0.0000 C   0  0
    0.2225   -7.9141    0.0000 C   0  0
    1.1079   -6.7042    0.0000 C   0  0
    2.6079   -6.7004    0.0000 O   0  0
   -1.8032   -3.1233    0.0000 C   0  0
   -2.4133   -1.7530    0.0000 N   0  0
   -3.8805   -1.4410    0.0000 C   0  0
    2.5965   -3.0004    0.0000 C   0  0
    3.8943   -3.7525    0.0000 C   0  0
    5.2691   -6.1142    0.0000 C   0  0
  1  2  1  0
  3  2  1  4
  3  4  1  0
  4  5  1  0
  5  6  1  0
  6  7  1  0
  7  8  2  0
  7  9  1  0
  9 10  1  0
 10 11  1  0
 11 12  1  0
 12 13  1  0
 13 14  2  0
 14 15  1  0
 15 16  2  0
 16 17  1  0
 17 18  2  0
 18 13  1  0
 18 19  1  0
 19 20  1  0
 20 21  2  0
 21 22  1  0
 22 23  1  0
 23 24  2  0
 24 25  1  0
 25 26  2  0
 26 27  1  0
 27 28  1  0
 28 29  2  0
 28 30  1  0
 30 31  1  0
 31 32  2  0
 32 33  1  0
 33 34  2  0
 34 35  1  0
 35 36  2  0
 36 31  1  0
 26 37  1  0
 37 38  2  0
 38 23  1  0
 38 39  1  0
 39 21  1  0
 39 40  2  0
 19 41  2  0
 41 42  1  0
 42 17  1  0
 42 43  1  0
 12 44  1  0
 44 45  1  0
 45  9  1  0
  6 46  1  0
 46  3  1  0
M  END
> <assay_chembl_id>
CHEMBL1107896

> <assay_description>
Antiproliferative activity against human LNCAP cells

> <document_journal>
Bioorg Med Chem Lett

> <molecule_chembl_id>
CHEMBL1091702

> <standard_value>
190

> <IC50_uM>
0.19

> <Activity>
Yes

> <Canonical_Smiles>
COC1CCN(C(=O)C2CCN(c3ccnc4c3c(/C=C3\Oc5ccc(NC(=O)Nc6cccnc6)cc5C3=O)cn4C)CC2)C1

$$$$

  SciTegic03142313312D

 45 51  0  0  0  0            999 V2000
   -0.6923   -4.0811    0.0000 C   0  0
    0.3114   -2.9665    0.0000 N   0  0
    1.8032   -3.1233    0.0000 C   0  0
    2.4133   -1.7530    0.0000 C   0  0
    3.8794   -1.4442    0.0000 C   0  0
    4.8823   -2.5608    0.0000 C   0  0
    4.5510   -4.0107    0.0000 O   0  0
    5.8470   -4.7643    0.0000 C   0  0
    6.1541   -6.2326    0.0000 C   0  0
    7.5791   -6.7008    0.0000 C   0  0
    8.6971   -5.7008    0.0000 C   0  0
   10.1239   -6.1663    0.0000 N   0  0
   11.2411   -5.1641    0.0000 C   0  0
   10.9315   -3.6964    0.0000 O   0  0
   12.6679   -5.6297    0.0000 N   0  0
   13.7851   -4.6275    0.0000 C   0  0
   15.2119   -5.0907    0.0000 C   0  0
   16.3264   -4.0868    0.0000 C   0  0
   16.0143   -2.6196    0.0000 C   0  0
   14.5876   -2.1564    0.0000 N   0  0
   13.4731   -3.1602    0.0000 C   0  0
    8.3901   -4.2325    0.0000 C   0  0
    6.9650   -3.7643    0.0000 C   0  0
    6.3600   -2.3926    0.0000 C   0  0
    7.1067   -1.0917    0.0000 O   0  0
    1.2990   -0.7500    0.0000 C   0  0
    1.2990    0.7500    0.0000 C   0  0
    2.5987    1.5004    0.0000 N   0  0
    3.8991    0.7525    0.0000 C   0  0
    5.1969    1.5046    0.0000 C   0  0
    5.1945    3.0046    0.0000 C   0  0
    6.4915    3.7597    0.0000 C   0  0
    7.7930    3.0141    0.0000 O   0  0
    6.4870    5.2606    0.0000 N   0  0
    7.7822    6.0172    0.0000 C   0  0
    7.7746    7.5172    0.0000 C   0  0
    6.4718    8.2606    0.0000 C   0  0
    5.1766    7.5041    0.0000 C   0  0
    5.1842    6.0041    0.0000 C   0  0
    3.8943    3.7525    0.0000 C   0  0
    2.5964    3.0004    0.0000 C   0  0
    0.0000    1.5000    0.0000 C   0  0
   -1.2990    0.7500    0.0000 C   0  0
   -1.2990   -0.7500    0.0000 N   0  0
    0.0000   -1.5000    0.0000 C   0  0
  1  2  1  0
  2  3  1  0
  3  4  2  0
  4  5  1  0
  5  6  2  0
  6  7  1  0
  7  8  1  0
  8  9  2  0
  9 10  1  0
 10 11  2  0
 11 12  1  0
 12 13  1  0
 13 14  2  0
 13 15  1  0
 15 16  1  0
 16 17  2  0
 17 18  1  0
 18 19  2  0
 19 20  1  0
 20 21  2  0
 21 16  1  0
 11 22  1  0
 22 23  2  0
 23  8  1  0
 23 24  1  0
 24  6  1  0
 24 25  2  0
  4 26  1  0
 26 27  2  0
 27 28  1  0
 28 29  1  0
 29 30  1  0
 30 31  1  0
 31 32  1  0
 32 33  2  0
 32 34  1  0
 34 35  1  0
 35 36  1  0
 36 37  1  0
 37 38  1  0
 38 39  1  0
 39 34  1  0
 31 40  1  0
 40 41  1  0
 41 28  1  0
 27 42  1  0
 42 43  2  0
 43 44  1  0
 44 45  2  0
 45 26  1  0
 45  2  1  0
M  END
> <assay_chembl_id>
CHEMBL1107896

> <assay_description>
Antiproliferative activity against human LNCAP cells

> <document_journal>
Bioorg Med Chem Lett

> <molecule_chembl_id>
CHEMBL1091700

> <standard_value>
18

> <IC50_uM>
0.018

> <Activity>
Yes

> <Canonical_Smiles>
Cn1cc(/C=C2\Oc3ccc(NC(=O)Nc4cccnc4)cc3C2=O)c2c(N3CCC(C(=O)N4CCCCC4)CC3)ccnc21

$$$$

  SciTegic03142313312D

 44 50  0  0  0  0            999 V2000
   -0.6923   -4.0811    0.0000 C   0  0
    0.3114   -2.9665    0.0000 N   0  0
    1.8032   -3.1233    0.0000 C   0  0
    2.4133   -1.7530    0.0000 C   0  0
    3.8794   -1.4442    0.0000 C   0  0
    4.8823   -2.5608    0.0000 C   0  0
    4.5510   -4.0107    0.0000 O   0  0
    5.8470   -4.7643    0.0000 C   0  0
    6.1541   -6.2326    0.0000 C   0  0
    7.5791   -6.7008    0.0000 C   0  0
    8.6971   -5.7008    0.0000 C   0  0
   10.1239   -6.1663    0.0000 N   0  0
   11.2411   -5.1641    0.0000 C   0  0
   10.9315   -3.6964    0.0000 O   0  0
   12.6679   -5.6297    0.0000 N   0  0
   13.7851   -4.6275    0.0000 C   0  0
   15.2119   -5.0907    0.0000 C   0  0
   16.3264   -4.0868    0.0000 C   0  0
   16.0143   -2.6196    0.0000 C   0  0
   14.5876   -2.1564    0.0000 N   0  0
   13.4731   -3.1602    0.0000 C   0  0
    8.3901   -4.2325    0.0000 C   0  0
    6.9650   -3.7643    0.0000 C   0  0
    6.3600   -2.3926    0.0000 C   0  0
    7.1067   -1.0917    0.0000 O   0  0
    1.2990   -0.7500    0.0000 C   0  0
    1.2990    0.7500    0.0000 C   0  0
    2.5987    1.5004    0.0000 N   0  0
    3.8991    0.7525    0.0000 C   0  0
    5.1969    1.5046    0.0000 C   0  0
    5.1945    3.0046    0.0000 C   0  0
    6.4915    3.7597    0.0000 C   0  0
    7.7930    3.0141    0.0000 O   0  0
    6.4870    5.2606    0.0000 N   0  0
    7.6961    6.1265    0.0000 C   0  0
    7.2254    7.5507    0.0000 C   0  0
    5.7254    7.5431    0.0000 C   0  0
    5.2691    6.1142    0.0000 C   0  0
    3.8943    3.7525    0.0000 C   0  0
    2.5964    3.0004    0.0000 C   0  0
    0.0000    1.5000    0.0000 C   0  0
   -1.2990    0.7500    0.0000 C   0  0
   -1.2990   -0.7500    0.0000 N   0  0
    0.0000   -1.5000    0.0000 C   0  0
  1  2  1  0
  2  3  1  0
  3  4  2  0
  4  5  1  0
  5  6  2  0
  6  7  1  0
  7  8  1  0
  8  9  2  0
  9 10  1  0
 10 11  2  0
 11 12  1  0
 12 13  1  0
 13 14  2  0
 13 15  1  0
 15 16  1  0
 16 17  2  0
 17 18  1  0
 18 19  2  0
 19 20  1  0
 20 21  2  0
 21 16  1  0
 11 22  1  0
 22 23  2  0
 23  8  1  0
 23 24  1  0
 24  6  1  0
 24 25  2  0
  4 26  1  0
 26 27  2  0
 27 28  1  0
 28 29  1  0
 29 30  1  0
 30 31  1  0
 31 32  1  0
 32 33  2  0
 32 34  1  0
 34 35  1  0
 35 36  1  0
 36 37  1  0
 37 38  1  0
 38 34  1  0
 31 39  1  0
 39 40  1  0
 40 28  1  0
 27 41  1  0
 41 42  2  0
 42 43  1  0
 43 44  2  0
 44 26  1  0
 44  2  1  0
M  END
> <assay_chembl_id>
CHEMBL1107896

> <assay_description>
Antiproliferative activity against human LNCAP cells

> <document_journal>
Bioorg Med Chem Lett

> <molecule_chembl_id>
CHEMBL1091699

> <standard_value>
12

> <IC50_uM>
0.012

> <Activity>
Yes

> <Canonical_Smiles>
Cn1cc(/C=C2\Oc3ccc(NC(=O)Nc4cccnc4)cc3C2=O)c2c(N3CCC(C(=O)N4CCCC4)CC3)ccnc21

$$$$

  SciTegic03142313312D

 46 52  0  0  0  0            999 V2000
    6.4643   -9.7605    0.0000 C   0  0
    6.4719   -8.2606    0.0000 N   0  0
    7.7747   -7.5171    0.0000 C   0  0
    7.7822   -6.0171    0.0000 C   0  0
    6.4870   -5.2605    0.0000 N   0  0
    6.4915   -3.7597    0.0000 C   0  0
    7.7931   -3.0140    0.0000 O   0  0
    5.1945   -3.0045    0.0000 C   0  0
    5.1969   -1.5045    0.0000 C   0  0
    3.8991   -0.7525    0.0000 C   0  0
    2.5987   -1.5004    0.0000 N   0  0
    1.2990   -0.7500    0.0000 C   0  0
    1.2990    0.7500    0.0000 C   0  0
    0.0000    1.5000    0.0000 C   0  0
   -1.2990    0.7500    0.0000 N   0  0
   -1.2990   -0.7500    0.0000 C   0  0
    0.0000   -1.5000    0.0000 C   0  0
   -0.3114   -2.9665    0.0000 C   0  0
    0.6890   -4.0818    0.0000 C   0  0
    0.2235   -5.5086    0.0000 C   0  0
   -1.1979   -5.9466    0.0000 O   0  0
   -1.2025   -7.4458    0.0000 C   0  0
   -2.3205   -8.4459    0.0000 C   0  0
   -2.0135   -9.9141    0.0000 C   0  0
   -0.5884  -10.3823    0.0000 C   0  0
   -0.2782  -11.8507    0.0000 N   0  0
    1.1483  -12.3172    0.0000 C   0  0
    2.2646  -11.3152    0.0000 O   0  0
    1.4585  -13.7856    0.0000 N   0  0
    2.8850  -14.2520    0.0000 C   0  0
    3.1972  -15.7192    0.0000 C   0  0
    4.6239  -16.1825    0.0000 C   0  0
    5.7385  -15.1786    0.0000 C   0  0
    5.4263  -13.7114    0.0000 N   0  0
    3.9997  -13.2481    0.0000 C   0  0
    0.5296   -9.3823    0.0000 C   0  0
    0.2225   -7.9141    0.0000 C   0  0
    1.1079   -6.7042    0.0000 C   0  0
    2.6079   -6.7004    0.0000 O   0  0
   -1.8032   -3.1233    0.0000 C   0  0
   -2.4133   -1.7530    0.0000 N   0  0
   -3.8805   -1.4410    0.0000 C   0  0
    2.5965   -3.0004    0.0000 C   0  0
    3.8943   -3.7525    0.0000 C   0  0
    5.1842   -6.0040    0.0000 C   0  0
    5.1766   -7.5040    0.0000 C   0  0
  1  2  1  0
  2  3  1  0
  3  4  1  0
  4  5  1  0
  5  6  1  0
  6  7  2  0
  6  8  1  0
  8  9  1  0
  9 10  1  0
 10 11  1  0
 11 12  1  0
 12 13  2  0
 13 14  1  0
 14 15  2  0
 15 16  1  0
 16 17  2  0
 17 12  1  0
 17 18  1  0
 18 19  1  0
 19 20  2  0
 20 21  1  0
 21 22  1  0
 22 23  2  0
 23 24  1  0
 24 25  2  0
 25 26  1  0
 26 27  1  0
 27 28  2  0
 27 29  1  0
 29 30  1  0
 30 31  2  0
 31 32  1  0
 32 33  2  0
 33 34  1  0
 34 35  2  0
 35 30  1  0
 25 36  1  0
 36 37  2  0
 37 22  1  0
 37 38  1  0
 38 20  1  0
 38 39  2  0
 18 40  2  0
 40 41  1  0
 41 16  1  0
 41 42  1  0
 11 43  1  0
 43 44  1  0
 44  8  1  0
  5 45  1  0
 45 46  1  0
 46  2  1  0
M  END
> <assay_chembl_id>
CHEMBL1107896

> <assay_description>
Antiproliferative activity against human LNCAP cells

> <document_journal>
Bioorg Med Chem Lett

> <molecule_chembl_id>
CHEMBL1091698

> <standard_value>
330

> <IC50_uM>
0.33

> <Activity>
Yes

> <Canonical_Smiles>
CN1CCN(C(=O)C2CCN(c3ccnc4c3c(/C=C3\Oc5ccc(NC(=O)Nc6cccnc6)cc5C3=O)cn4C)CC2)CC1

$$$$

  SciTegic03142313312D

 47 54  0  0  0  0            999 V2000
   -0.6923   -4.0811    0.0000 C   0  0
    0.3114   -2.9665    0.0000 N   0  0
    1.8032   -3.1233    0.0000 C   0  0
    2.4133   -1.7530    0.0000 C   0  0
    3.8794   -1.4442    0.0000 C   0  0
    4.8823   -2.5608    0.0000 C   0  0
    4.5510   -4.0107    0.0000 O   0  0
    5.8470   -4.7643    0.0000 C   0  0
    6.1541   -6.2326    0.0000 C   0  0
    7.5791   -6.7008    0.0000 C   0  0
    8.6971   -5.7008    0.0000 C   0  0
   10.1239   -6.1663    0.0000 N   0  0
   11.2411   -5.1641    0.0000 C   0  0
   10.9315   -3.6964    0.0000 O   0  0
   12.6679   -5.6297    0.0000 N   0  0
   13.7851   -4.6275    0.0000 C   0  0
   15.2119   -5.0907    0.0000 C   0  0
   16.3264   -4.0868    0.0000 C   0  0
   16.0143   -2.6196    0.0000 C   0  0
   14.5876   -2.1564    0.0000 N   0  0
   13.4731   -3.1602    0.0000 C   0  0
    8.3901   -4.2325    0.0000 C   0  0
    6.9650   -3.7643    0.0000 C   0  0
    6.3600   -2.3926    0.0000 C   0  0
    7.1067   -1.0917    0.0000 O   0  0
    1.2990   -0.7500    0.0000 C   0  0
    1.2990    0.7500    0.0000 C   0  0
    2.5987    1.5004    0.0000 N   0  0
    3.8991    0.7525    0.0000 C   0  0
    5.1969    1.5046    0.0000 C   0  0
    5.1945    3.0046    0.0000 C   0  0
    6.4915    3.7597    0.0000 C   0  0
    7.7930    3.0141    0.0000 O   0  0
    6.4870    5.2606    0.0000 N   0  0
    6.9742    6.4453    0.0000 C   0  0  3  0  0  0
    5.7226    7.1822    0.0000 C   0  0
    4.3807    7.1464    0.0000 C   0  0
    5.9132    6.5460    0.0000 C   0  0  3  0  0  0
    7.4191    7.5101    0.0000 C   0  0
    7.7853    8.6977    0.0000 O   0  0
    8.3768    7.2999    0.0000 C   0  0
    3.8943    3.7525    0.0000 C   0  0
    2.5964    3.0004    0.0000 C   0  0
    0.0000    1.5000    0.0000 C   0  0
   -1.2990    0.7500    0.0000 C   0  0
   -1.2990   -0.7500    0.0000 N   0  0
    0.0000   -1.5000    0.0000 C   0  0
  1  2  1  0
  2  3  1  0
  3  4  2  0
  4  5  1  0
  5  6  2  0
  6  7  1  0
  7  8  1  0
  8  9  2  0
  9 10  1  0
 10 11  2  0
 11 12  1  0
 12 13  1  0
 13 14  2  0
 13 15  1  0
 15 16  1  0
 16 17  2  0
 17 18  1  0
 18 19  2  0
 19 20  1  0
 20 21  2  0
 21 16  1  0
 11 22  1  0
 22 23  2  0
 23  8  1  0
 23 24  1  0
 24  6  1  0
 24 25  2  0
  4 26  1  0
 26 27  2  0
 27 28  1  0
 28 29  1  0
 29 30  1  0
 30 31  1  0
 31 32  1  0
 32 33  2  0
 32 34  1  0
 34 35  1  0
 35 36  1  4
 36 37  1  0
 38 37  1  4
 38 34  1  0
 38 39  1  0
 39 40  1  0
 40 41  1  0
 41 35  1  0
 31 42  1  0
 42 43  1  0
 43 28  1  0
 27 44  1  0
 44 45  2  0
 45 46  1  0
 46 47  2  0
 47 26  1  0
 47  2  1  0
M  END
> <assay_chembl_id>
CHEMBL1107896

> <assay_description>
Antiproliferative activity against human LNCAP cells

> <document_journal>
Bioorg Med Chem Lett

> <molecule_chembl_id>
CHEMBL1091697

> <standard_value>
200

> <IC50_uM>
0.2

> <Activity>
Yes

> <Canonical_Smiles>
Cn1cc(/C=C2\Oc3ccc(NC(=O)Nc4cccnc4)cc3C2=O)c2c(N3CCC(C(=O)N4C5CCC4COC5)CC3)ccnc21

$$$$

  SciTegic03142313312D

 47 54  0  0  0  0            999 V2000
   -0.6923   -4.0811    0.0000 C   0  0
    0.3114   -2.9665    0.0000 N   0  0
    1.8032   -3.1233    0.0000 C   0  0
    2.4133   -1.7530    0.0000 C   0  0
    3.8794   -1.4442    0.0000 C   0  0
    4.8823   -2.5608    0.0000 C   0  0
    4.5510   -4.0107    0.0000 O   0  0
    5.8470   -4.7643    0.0000 C   0  0
    6.1541   -6.2326    0.0000 C   0  0
    7.5791   -6.7008    0.0000 C   0  0
    8.6971   -5.7008    0.0000 C   0  0
   10.1239   -6.1663    0.0000 N   0  0
   11.2411   -5.1641    0.0000 C   0  0
   10.9315   -3.6964    0.0000 O   0  0
   12.6679   -5.6297    0.0000 N   0  0
   13.7851   -4.6275    0.0000 C   0  0
   15.2119   -5.0907    0.0000 C   0  0
   16.3264   -4.0868    0.0000 C   0  0
   16.0143   -2.6196    0.0000 C   0  0
   14.5876   -2.1564    0.0000 N   0  0
   13.4731   -3.1602    0.0000 C   0  0
    8.3901   -4.2325    0.0000 C   0  0
    6.9650   -3.7643    0.0000 C   0  0
    6.3600   -2.3926    0.0000 C   0  0
    7.1067   -1.0917    0.0000 O   0  0
    1.2990   -0.7500    0.0000 C   0  0
    1.2990    0.7500    0.0000 C   0  0
    2.5987    1.5004    0.0000 N   0  0
    3.8991    0.7525    0.0000 C   0  0
    5.1969    1.5046    0.0000 C   0  0
    5.1945    3.0046    0.0000 C   0  0
    6.4915    3.7597    0.0000 C   0  0
    7.7930    3.0141    0.0000 O   0  0
    6.4870    5.2606    0.0000 N   0  0
    6.8806    6.3541    0.0000 C   0  0
    8.3957    7.3036    0.0000 C   0  0  3  0  0  0
    9.9224    6.6886    0.0000 C   0  0
    8.5802    6.6657    0.0000 C   0  0
    7.3357    7.4145    0.0000 C   0  0  3  0  0  0
    5.9250    6.5734    0.0000 C   0  0
    7.8273    8.6916    0.0000 O   0  0
    3.8943    3.7525    0.0000 C   0  0
    2.5964    3.0004    0.0000 C   0  0
    0.0000    1.5000    0.0000 C   0  0
   -1.2990    0.7500    0.0000 C   0  0
   -1.2990   -0.7500    0.0000 N   0  0
    0.0000   -1.5000    0.0000 C   0  0
  1  2  1  0
  2  3  1  0
  3  4  2  0
  4  5  1  0
  5  6  2  0
  6  7  1  0
  7  8  1  0
  8  9  2  0
  9 10  1  0
 10 11  2  0
 11 12  1  0
 12 13  1  0
 13 14  2  0
 13 15  1  0
 15 16  1  0
 16 17  2  0
 17 18  1  0
 18 19  2  0
 19 20  1  0
 20 21  2  0
 21 16  1  0
 11 22  1  0
 22 23  2  0
 23  8  1  0
 23 24  1  0
 24  6  1  0
 24 25  2  0
  4 26  1  0
 26 27  2  0
 27 28  1  0
 28 29  1  0
 29 30  1  0
 30 31  1  0
 31 32  1  0
 32 33  2  0
 32 34  1  0
 34 35  1  0
 36 35  1  4
 36 37  1  0
 37 38  1  0
 39 38  1  4
 39 40  1  0
 40 34  1  0
 39 41  1  0
 41 36  1  0
 31 42  1  0
 42 43  1  0
 43 28  1  0
 27 44  1  0
 44 45  2  0
 45 46  1  0
 46 47  2  0
 47 26  1  0
 47  2  1  0
M  END
> <assay_chembl_id>
CHEMBL1107896

> <assay_description>
Antiproliferative activity against human LNCAP cells

> <document_journal>
Bioorg Med Chem Lett

> <molecule_chembl_id>
CHEMBL1091696

> <standard_value>
90

> <IC50_uM>
0.09

> <Activity>
Yes

> <Canonical_Smiles>
Cn1cc(/C=C2\Oc3ccc(NC(=O)Nc4cccnc4)cc3C2=O)c2c(N3CCC(C(=O)N4CC5CCC(C4)O5)CC3)ccnc21

$$$$

  SciTegic03142313312D

 44 49  0  0  0  0            999 V2000
    7.7795   -7.5156    0.0000 C   0  0
    7.7840   -6.0157    0.0000 C   0  0
    6.4870   -5.2605    0.0000 N   0  0
    5.1863   -6.0093    0.0000 C   0  0
    5.1835   -7.5093    0.0000 C   0  0
    6.4915   -3.7597    0.0000 C   0  0
    7.7931   -3.0140    0.0000 O   0  0
    5.1945   -3.0045    0.0000 C   0  0
    5.1969   -1.5045    0.0000 C   0  0
    3.8991   -0.7525    0.0000 C   0  0
    2.5987   -1.5004    0.0000 N   0  0
    1.2990   -0.7500    0.0000 C   0  0
    1.2990    0.7500    0.0000 C   0  0
    0.0000    1.5000    0.0000 C   0  0
   -1.2990    0.7500    0.0000 N   0  0
   -1.2990   -0.7500    0.0000 C   0  0
    0.0000   -1.5000    0.0000 C   0  0
   -0.3114   -2.9665    0.0000 C   0  0
    0.6890   -4.0818    0.0000 C   0  0
    0.2235   -5.5086    0.0000 C   0  0
   -1.1979   -5.9466    0.0000 O   0  0
   -1.2025   -7.4458    0.0000 C   0  0
   -2.3205   -8.4459    0.0000 C   0  0
   -2.0135   -9.9141    0.0000 C   0  0
   -0.5884  -10.3823    0.0000 C   0  0
   -0.2782  -11.8507    0.0000 N   0  0
    1.1483  -12.3172    0.0000 C   0  0
    2.2646  -11.3152    0.0000 O   0  0
    1.4585  -13.7856    0.0000 N   0  0
    2.8850  -14.2520    0.0000 C   0  0
    3.1972  -15.7192    0.0000 C   0  0
    4.6239  -16.1825    0.0000 C   0  0
    5.7385  -15.1786    0.0000 C   0  0
    5.4263  -13.7114    0.0000 N   0  0
    3.9997  -13.2481    0.0000 C   0  0
    0.5296   -9.3823    0.0000 C   0  0
    0.2225   -7.9141    0.0000 C   0  0
    1.1079   -6.7042    0.0000 C   0  0
    2.6079   -6.7004    0.0000 O   0  0
   -1.8032   -3.1233    0.0000 C   0  0
   -2.4133   -1.7530    0.0000 N   0  0
   -3.8805   -1.4410    0.0000 C   0  0
    2.5965   -3.0004    0.0000 C   0  0
    3.8943   -3.7525    0.0000 C   0  0
  1  2  1  0
  2  3  1  0
  3  4  1  0
  4  5  1  0
  3  6  1  0
  6  7  2  0
  6  8  1  0
  8  9  1  0
  9 10  1  0
 10 11  1  0
 11 12  1  0
 12 13  2  0
 13 14  1  0
 14 15  2  0
 15 16  1  0
 16 17  2  0
 17 12  1  0
 17 18  1  0
 18 19  1  0
 19 20  2  0
 20 21  1  0
 21 22  1  0
 22 23  2  0
 23 24  1  0
 24 25  2  0
 25 26  1  0
 26 27  1  0
 27 28  2  0
 27 29  1  0
 29 30  1  0
 30 31  2  0
 31 32  1  0
 32 33  2  0
 33 34  1  0
 34 35  2  0
 35 30  1  0
 25 36  1  0
 36 37  2  0
 37 22  1  0
 37 38  1  0
 38 20  1  0
 38 39  2  0
 18 40  2  0
 40 41  1  0
 41 16  1  0
 41 42  1  0
 11 43  1  0
 43 44  1  0
 44  8  1  0
M  END
> <assay_chembl_id>
CHEMBL1107896

> <assay_description>
Antiproliferative activity against human LNCAP cells

> <document_journal>
Bioorg Med Chem Lett

> <molecule_chembl_id>
CHEMBL1091694

> <standard_value>
50

> <IC50_uM>
0.05

> <Activity>
Yes

> <Canonical_Smiles>
CCN(CC)C(=O)C1CCN(c2ccnc3c2c(/C=C2\Oc4ccc(NC(=O)Nc5cccnc5)cc4C2=O)cn3C)CC1

$$$$

  SciTegic03142313312D

 42 47  0  0  0  0            999 V2000
    7.7833   -6.0152    0.0000 C   0  0
    6.4870   -5.2605    0.0000 N   0  0
    5.1855   -6.0062    0.0000 C   0  0
    6.4915   -3.7597    0.0000 C   0  0
    7.7931   -3.0140    0.0000 O   0  0
    5.1945   -3.0045    0.0000 C   0  0
    5.1969   -1.5045    0.0000 C   0  0
    3.8991   -0.7525    0.0000 C   0  0
    2.5987   -1.5004    0.0000 N   0  0
    1.2990   -0.7500    0.0000 C   0  0
    1.2990    0.7500    0.0000 C   0  0
    0.0000    1.5000    0.0000 C   0  0
   -1.2990    0.7500    0.0000 N   0  0
   -1.2990   -0.7500    0.0000 C   0  0
    0.0000   -1.5000    0.0000 C   0  0
   -0.3114   -2.9665    0.0000 C   0  0
    0.6890   -4.0818    0.0000 C   0  0
    0.2235   -5.5086    0.0000 C   0  0
   -1.1979   -5.9466    0.0000 O   0  0
   -1.2025   -7.4458    0.0000 C   0  0
   -2.3205   -8.4459    0.0000 C   0  0
   -2.0135   -9.9141    0.0000 C   0  0
   -0.5884  -10.3823    0.0000 C   0  0
   -0.2782  -11.8507    0.0000 N   0  0
    1.1483  -12.3172    0.0000 C   0  0
    2.2646  -11.3152    0.0000 O   0  0
    1.4585  -13.7856    0.0000 N   0  0
    2.8850  -14.2520    0.0000 C   0  0
    3.1972  -15.7192    0.0000 C   0  0
    4.6239  -16.1825    0.0000 C   0  0
    5.7385  -15.1786    0.0000 C   0  0
    5.4263  -13.7114    0.0000 N   0  0
    3.9997  -13.2481    0.0000 C   0  0
    0.5296   -9.3823    0.0000 C   0  0
    0.2225   -7.9141    0.0000 C   0  0
    1.1079   -6.7042    0.0000 C   0  0
    2.6079   -6.7004    0.0000 O   0  0
   -1.8032   -3.1233    0.0000 C   0  0
   -2.4133   -1.7530    0.0000 N   0  0
   -3.8805   -1.4410    0.0000 C   0  0
    2.5965   -3.0004    0.0000 C   0  0
    3.8943   -3.7525    0.0000 C   0  0
  1  2  1  0
  2  3  1  0
  2  4  1  0
  4  5  2  0
  4  6  1  0
  6  7  1  0
  7  8  1  0
  8  9  1  0
  9 10  1  0
 10 11  2  0
 11 12  1  0
 12 13  2  0
 13 14  1  0
 14 15  2  0
 15 10  1  0
 15 16  1  0
 16 17  1  0
 17 18  2  0
 18 19  1  0
 19 20  1  0
 20 21  2  0
 21 22  1  0
 22 23  2  0
 23 24  1  0
 24 25  1  0
 25 26  2  0
 25 27  1  0
 27 28  1  0
 28 29  2  0
 29 30  1  0
 30 31  2  0
 31 32  1  0
 32 33  2  0
 33 28  1  0
 23 34  1  0
 34 35  2  0
 35 20  1  0
 35 36  1  0
 36 18  1  0
 36 37  2  0
 16 38  2  0
 38 39  1  0
 39 14  1  0
 39 40  1  0
  9 41  1  0
 41 42  1  0
 42  6  1  0
M  END
> <assay_chembl_id>
CHEMBL1107896

> <assay_description>
Antiproliferative activity against human LNCAP cells

> <document_journal>
Bioorg Med Chem Lett

> <molecule_chembl_id>
CHEMBL1091693

> <standard_value>
80

> <IC50_uM>
0.08

> <Activity>
Yes

> <Canonical_Smiles>
CN(C)C(=O)C1CCN(c2ccnc3c2c(/C=C2\Oc4ccc(NC(=O)Nc5cccnc5)cc4C2=O)cn3C)CC1

$$$$

  SciTegic03142313312D

 39 45  0  0  0  0            999 V2000
   -0.6923   -4.0811    0.0000 C   0  0
    0.3114   -2.9665    0.0000 N   0  0
    1.8032   -3.1233    0.0000 C   0  0
    2.4133   -1.7530    0.0000 C   0  0
    3.8794   -1.4442    0.0000 C   0  0
    4.8823   -2.5608    0.0000 C   0  0
    4.5510   -4.0107    0.0000 O   0  0
    5.8470   -4.7643    0.0000 C   0  0
    6.1541   -6.2326    0.0000 C   0  0
    7.5791   -6.7008    0.0000 C   0  0
    8.6971   -5.7008    0.0000 C   0  0
   10.1239   -6.1663    0.0000 N   0  0
   11.2411   -5.1641    0.0000 C   0  0
   10.9315   -3.6964    0.0000 O   0  0
   12.6679   -5.6297    0.0000 N   0  0
   13.7851   -4.6275    0.0000 C   0  0
   15.2119   -5.0907    0.0000 C   0  0
   16.3264   -4.0868    0.0000 C   0  0
   16.0143   -2.6196    0.0000 C   0  0
   14.5876   -2.1564    0.0000 N   0  0
   13.4731   -3.1602    0.0000 C   0  0
    8.3901   -4.2325    0.0000 C   0  0
    6.9650   -3.7643    0.0000 C   0  0
    6.3600   -2.3926    0.0000 C   0  0
    7.1067   -1.0917    0.0000 O   0  0
    1.2990   -0.7500    0.0000 C   0  0
    1.2990    0.7500    0.0000 C   0  0
    2.5987    1.5004    0.0000 N   0  0
    3.8690    1.6663    0.0000 C   0  0  3  0  0  0
    3.8865    3.1186    0.0000 C   0  0
    3.1887    4.2653    0.0000 C   0  0
    3.4292    2.6371    0.0000 C   0  0  3  0  0  0
    5.0140    1.8093    0.0000 C   0  0
    6.2267    2.0816    0.0000 O   0  0
    5.3076    0.8737    0.0000 C   0  0
    0.0000    1.5000    0.0000 C   0  0
   -1.2990    0.7500    0.0000 C   0  0
   -1.2990   -0.7500    0.0000 N   0  0
    0.0000   -1.5000    0.0000 C   0  0
  1  2  1  0
  2  3  1  0
  3  4  2  0
  4  5  1  0
  5  6  2  0
  6  7  1  0
  7  8  1  0
  8  9  2  0
  9 10  1  0
 10 11  2  0
 11 12  1  0
 12 13  1  0
 13 14  2  0
 13 15  1  0
 15 16  1  0
 16 17  2  0
 17 18  1  0
 18 19  2  0
 19 20  1  0
 20 21  2  0
 21 16  1  0
 11 22  1  0
 22 23  2  0
 23  8  1  0
 23 24  1  0
 24  6  1  0
 24 25  2  0
  4 26  1  0
 26 27  2  0
 27 28  1  0
 28 29  1  0
 29 30  1  4
 30 31  1  0
 32 31  1  4
 32 28  1  0
 32 33  1  0
 33 34  1  0
 34 35  1  0
 35 29  1  0
 27 36  1  0
 36 37  2  0
 37 38  1  0
 38 39  2  0
 39 26  1  0
 39  2  1  0
M  END
> <assay_chembl_id>
CHEMBL1107896

> <assay_description>
Antiproliferative activity against human LNCAP cells

> <document_journal>
Bioorg Med Chem Lett

> <molecule_chembl_id>
CHEMBL1090710

> <standard_value>
6

> <IC50_uM>
0.006

> <Activity>
Yes

> <Canonical_Smiles>
Cn1cc(/C=C2\Oc3ccc(NC(=O)Nc4cccnc4)cc3C2=O)c2c(N3C4CCC3COC4)ccnc21

$$$$

  SciTegic03142313312D

 39 45  0  0  0  0            999 V2000
   -0.6923   -4.0811    0.0000 C   0  0
    0.3114   -2.9665    0.0000 N   0  0
    1.8032   -3.1233    0.0000 C   0  0
    2.4133   -1.7530    0.0000 C   0  0
    3.8794   -1.4442    0.0000 C   0  0
    4.8823   -2.5608    0.0000 C   0  0
    4.5510   -4.0107    0.0000 O   0  0
    5.8470   -4.7643    0.0000 C   0  0
    6.1541   -6.2326    0.0000 C   0  0
    7.5791   -6.7008    0.0000 C   0  0
    8.6971   -5.7008    0.0000 C   0  0
   10.1239   -6.1663    0.0000 N   0  0
   11.2411   -5.1641    0.0000 C   0  0
   10.9315   -3.6964    0.0000 O   0  0
   12.6679   -5.6297    0.0000 N   0  0
   13.7851   -4.6275    0.0000 C   0  0
   15.2119   -5.0907    0.0000 C   0  0
   16.3264   -4.0868    0.0000 C   0  0
   16.0143   -2.6196    0.0000 C   0  0
   14.5876   -2.1564    0.0000 N   0  0
   13.4731   -3.1602    0.0000 C   0  0
    8.3901   -4.2325    0.0000 C   0  0
    6.9650   -3.7643    0.0000 C   0  0
    6.3600   -2.3926    0.0000 C   0  0
    7.1067   -1.0917    0.0000 O   0  0
    1.2990   -0.7500    0.0000 C   0  0
    1.2990    0.7500    0.0000 C   0  0
    2.5987    1.5004    0.0000 N   0  0
    3.2934    2.6608    0.0000 C   0  0
    4.6008    2.7144    0.0000 C   0  0  3  0  0  0
    5.8279    1.6149    0.0000 C   0  0
    5.1150    0.3667    0.0000 C   0  0
    3.9905    1.5229    0.0000 C   0  0  3  0  0  0
    4.4442    3.2932    0.0000 C   0  0
    5.2075    4.1844    0.0000 O   0  0
    0.0000    1.5000    0.0000 C   0  0
   -1.2990    0.7500    0.0000 C   0  0
   -1.2990   -0.7500    0.0000 N   0  0
    0.0000   -1.5000    0.0000 C   0  0
  1  2  1  0
  2  3  1  0
  3  4  2  0
  4  5  1  0
  5  6  2  0
  6  7  1  0
  7  8  1  0
  8  9  2  0
  9 10  1  0
 10 11  2  0
 11 12  1  0
 12 13  1  0
 13 14  2  0
 13 15  1  0
 15 16  1  0
 16 17  2  0
 17 18  1  0
 18 19  2  0
 19 20  1  0
 20 21  2  0
 21 16  1  0
 11 22  1  0
 22 23  2  0
 23  8  1  0
 23 24  1  0
 24  6  1  0
 24 25  2  0
  4 26  1  0
 26 27  2  0
 27 28  1  0
 28 29  1  0
 30 29  1  4
 30 31  1  0
 31 32  1  0
 33 32  1  4
 33 28  1  0
 33 34  1  0
 34 35  1  0
 35 30  1  0
 27 36  1  0
 36 37  2  0
 37 38  1  0
 38 39  2  0
 39 26  1  0
 39  2  1  0
M  END
> <assay_chembl_id>
CHEMBL1107896

> <assay_description>
Antiproliferative activity against human LNCAP cells

> <document_journal>
Bioorg Med Chem Lett

> <molecule_chembl_id>
CHEMBL1090709

> <standard_value>
1.8

> <IC50_uM>
0.0018

> <Activity>
Yes

> <Canonical_Smiles>
Cn1cc(/C=C2\Oc3ccc(NC(=O)Nc4cccnc4)cc3C2=O)c2c(N3CC4CCC3CO4)ccnc21

$$$$

  SciTegic03142313312D

 37 42  0  0  0  0            999 V2000
   -0.6923   -4.0811    0.0000 C   0  0
    0.3114   -2.9665    0.0000 N   0  0
    1.8032   -3.1233    0.0000 C   0  0
    2.4133   -1.7530    0.0000 C   0  0
    3.8794   -1.4442    0.0000 C   0  0
    4.8823   -2.5608    0.0000 C   0  0
    4.5510   -4.0107    0.0000 O   0  0
    5.8470   -4.7643    0.0000 C   0  0
    6.1541   -6.2326    0.0000 C   0  0
    7.5791   -6.7008    0.0000 C   0  0
    8.6971   -5.7008    0.0000 C   0  0
   10.1239   -6.1663    0.0000 N   0  0
   11.2411   -5.1641    0.0000 C   0  0
   10.9315   -3.6964    0.0000 O   0  0
   12.6679   -5.6297    0.0000 N   0  0
   13.7851   -4.6275    0.0000 C   0  0
   15.2119   -5.0907    0.0000 C   0  0
   16.3264   -4.0868    0.0000 C   0  0
   16.0143   -2.6196    0.0000 C   0  0
   14.5876   -2.1564    0.0000 N   0  0
   13.4731   -3.1602    0.0000 C   0  0
    8.3901   -4.2325    0.0000 C   0  0
    6.9650   -3.7643    0.0000 C   0  0
    6.3600   -2.3926    0.0000 C   0  0
    7.1067   -1.0917    0.0000 O   0  0
    1.2990   -0.7500    0.0000 C   0  0
    1.2990    0.7500    0.0000 C   0  0
    2.5987    1.5004    0.0000 N   0  0
    3.8991    0.7525    0.0000 C   0  0
    5.1969    1.5046    0.0000 C   0  0
    5.1945    3.0046    0.0000 O   0  0
    3.8943    3.7525    0.0000 C   0  0
    2.5964    3.0004    0.0000 C   0  0
    0.0000    1.5000    0.0000 C   0  0
   -1.2990    0.7500    0.0000 C   0  0
   -1.2990   -0.7500    0.0000 N   0  0
    0.0000   -1.5000    0.0000 C   0  0
  1  2  1  0
  2  3  1  0
  3  4  2  0
  4  5  1  0
  5  6  2  0
  6  7  1  0
  7  8  1  0
  8  9  2  0
  9 10  1  0
 10 11  2  0
 11 12  1  0
 12 13  1  0
 13 14  2  0
 13 15  1  0
 15 16  1  0
 16 17  2  0
 17 18  1  0
 18 19  2  0
 19 20  1  0
 20 21  2  0
 21 16  1  0
 11 22  1  0
 22 23  2  0
 23  8  1  0
 23 24  1  0
 24  6  1  0
 24 25  2  0
  4 26  1  0
 26 27  2  0
 27 28  1  0
 28 29  1  0
 29 30  1  0
 30 31  1  0
 31 32  1  0
 32 33  1  0
 33 28  1  0
 27 34  1  0
 34 35  2  0
 35 36  1  0
 36 37  2  0
 37 26  1  0
 37  2  1  0
M  END
> <assay_chembl_id>
CHEMBL1107896

> <assay_description>
Antiproliferative activity against human LNCAP cells

> <document_journal>
Bioorg Med Chem Lett

> <molecule_chembl_id>
CHEMBL1090387

> <standard_value>
50

> <IC50_uM>
0.05

> <Activity>
Yes

> <Canonical_Smiles>
Cn1cc(/C=C2\Oc3ccc(NC(=O)Nc4cccnc4)cc3C2=O)c2c(N3CCOCC3)ccnc21

$$$$

  SciTegic03142313312D

 39 45  0  0  0  0            999 V2000
   -0.6923   -4.0811    0.0000 C   0  0
    0.3114   -2.9665    0.0000 N   0  0
    1.8032   -3.1233    0.0000 C   0  0
    2.4133   -1.7530    0.0000 C   0  0
    3.8794   -1.4442    0.0000 C   0  0
    4.8823   -2.5608    0.0000 C   0  0
    4.5510   -4.0107    0.0000 O   0  0
    5.8470   -4.7643    0.0000 C   0  0
    6.1541   -6.2326    0.0000 C   0  0
    7.5791   -6.7008    0.0000 C   0  0
    8.6971   -5.7008    0.0000 C   0  0
   10.1239   -6.1663    0.0000 N   0  0
   11.2411   -5.1641    0.0000 C   0  0
   10.9315   -3.6964    0.0000 O   0  0
   12.6679   -5.6297    0.0000 N   0  0
   13.7851   -4.6275    0.0000 C   0  0
   15.2119   -5.0907    0.0000 C   0  0
   16.3264   -4.0868    0.0000 C   0  0
   16.0143   -2.6196    0.0000 C   0  0
   14.5876   -2.1564    0.0000 N   0  0
   13.4731   -3.1602    0.0000 C   0  0
    8.3901   -4.2325    0.0000 C   0  0
    6.9650   -3.7643    0.0000 C   0  0
    6.3600   -2.3926    0.0000 C   0  0
    7.1067   -1.0917    0.0000 O   0  0
    1.2990   -0.7500    0.0000 C   0  0
    1.2990    0.7500    0.0000 C   0  0
    2.5987    1.5004    0.0000 N   0  0
    3.7433    1.7022    0.0000 C   0  0
    5.3202    0.8592    0.0000 C   0  0  3  0  0  0
    5.5451   -0.7713    0.0000 C   0  0
    4.8582    0.3820    0.0000 C   0  0
    4.8897    1.8341    0.0000 C   0  0  3  0  0  0
    3.4588    2.6405    0.0000 C   0  0
    6.2422    2.0421    0.0000 O   0  0
    0.0000    1.5000    0.0000 C   0  0
   -1.2990    0.7500    0.0000 C   0  0
   -1.2990   -0.7500    0.0000 N   0  0
    0.0000   -1.5000    0.0000 C   0  0
  1  2  1  0
  2  3  1  0
  3  4  2  0
  4  5  1  0
  5  6  2  0
  6  7  1  0
  7  8  1  0
  8  9  2  0
  9 10  1  0
 10 11  2  0
 11 12  1  0
 12 13  1  0
 13 14  2  0
 13 15  1  0
 15 16  1  0
 16 17  2  0
 17 18  1  0
 18 19  2  0
 19 20  1  0
 20 21  2  0
 21 16  1  0
 11 22  1  0
 22 23  2  0
 23  8  1  0
 23 24  1  0
 24  6  1  0
 24 25  2  0
  4 26  1  0
 26 27  2  0
 27 28  1  0
 28 29  1  0
 30 29  1  4
 30 31  1  0
 31 32  1  0
 33 32  1  4
 33 34  1  0
 34 28  1  0
 33 35  1  0
 35 30  1  0
 27 36  1  0
 36 37  2  0
 37 38  1  0
 38 39  2  0
 39 26  1  0
 39  2  1  0
M  END
> <assay_chembl_id>
CHEMBL1107896

> <assay_description>
Antiproliferative activity against human LNCAP cells

> <document_journal>
Bioorg Med Chem Lett

> <molecule_chembl_id>
CHEMBL1093685

> <standard_value>
15

> <IC50_uM>
0.015

> <Activity>
Yes

> <Canonical_Smiles>
Cn1cc(/C=C2\Oc3ccc(NC(=O)Nc4cccnc4)cc3C2=O)c2c(N3CC4CCC(C3)O4)ccnc21

$$$$

  SciTegic03142313312D

 39 45  0  0  0  0            999 V2000
   -0.6923   -4.0811    0.0000 C   0  0
    0.3114   -2.9665    0.0000 N   0  0
    1.8032   -3.1233    0.0000 C   0  0
    2.4133   -1.7530    0.0000 C   0  0
    3.8794   -1.4442    0.0000 C   0  0
    4.8823   -2.5608    0.0000 C   0  0
    4.5510   -4.0107    0.0000 O   0  0
    5.8470   -4.7643    0.0000 C   0  0
    6.1541   -6.2326    0.0000 C   0  0
    7.5791   -6.7008    0.0000 C   0  0
    8.6971   -5.7008    0.0000 C   0  0
   10.1239   -6.1663    0.0000 N   0  0
   11.2411   -5.1641    0.0000 C   0  0
   10.9315   -3.6964    0.0000 O   0  0
   12.6679   -5.6297    0.0000 N   0  0
   13.7851   -4.6275    0.0000 C   0  0
   15.2119   -5.0907    0.0000 C   0  0
   16.3264   -4.0868    0.0000 C   0  0
   16.0143   -2.6196    0.0000 C   0  0
   14.5876   -2.1564    0.0000 C   0  0
   13.4731   -3.1602    0.0000 C   0  0
    8.3901   -4.2325    0.0000 C   0  0
    6.9650   -3.7643    0.0000 C   0  0
    6.3600   -2.3926    0.0000 C   0  0
    7.1067   -1.0917    0.0000 O   0  0
    1.2990   -0.7500    0.0000 C   0  0
    1.2990    0.7500    0.0000 C   0  0
    2.5987    1.5004    0.0000 N   0  0
    3.7433    1.7022    0.0000 C   0  0
    5.3202    0.8592    0.0000 C   0  0  3  0  0  0
    5.5451   -0.7713    0.0000 C   0  0
    4.8582    0.3820    0.0000 C   0  0
    4.8897    1.8341    0.0000 C   0  0  3  0  0  0
    3.4588    2.6405    0.0000 C   0  0
    6.2422    2.0421    0.0000 O   0  0
    0.0000    1.5000    0.0000 C   0  0
   -1.2990    0.7500    0.0000 C   0  0
   -1.2990   -0.7500    0.0000 N   0  0
    0.0000   -1.5000    0.0000 C   0  0
  1  2  1  0
  2  3  1  0
  3  4  2  0
  4  5  1  0
  5  6  2  0
  6  7  1  0
  7  8  1  0
  8  9  2  0
  9 10  1  0
 10 11  2  0
 11 12  1  0
 12 13  1  0
 13 14  2  0
 13 15  1  0
 15 16  1  0
 16 17  2  0
 17 18  1  0
 18 19  2  0
 19 20  1  0
 20 21  2  0
 21 16  1  0
 11 22  1  0
 22 23  2  0
 23  8  1  0
 23 24  1  0
 24  6  1  0
 24 25  2  0
  4 26  1  0
 26 27  2  0
 27 28  1  0
 28 29  1  0
 30 29  1  4
 30 31  1  0
 31 32  1  0
 33 32  1  4
 33 34  1  0
 34 28  1  0
 33 35  1  0
 35 30  1  0
 27 36  1  0
 36 37  2  0
 37 38  1  0
 38 39  2  0
 39 26  1  0
 39  2  1  0
M  END
> <assay_chembl_id>
CHEMBL1107896

> <assay_description>
Antiproliferative activity against human LNCAP cells

> <document_journal>
Bioorg Med Chem Lett

> <molecule_chembl_id>
CHEMBL1093334

> <standard_value>
280

> <IC50_uM>
0.28

> <Activity>
Yes

> <Canonical_Smiles>
Cn1cc(/C=C2\Oc3ccc(NC(=O)Nc4ccccc4)cc3C2=O)c2c(N3CC4CCC(C3)O4)ccnc21

$$$$

  SciTegic03142313312D

 38 43  0  0  0  0            999 V2000
    6.4848   -8.2644    0.0000 C   0  0
    5.1873   -7.5117    0.0000 N   0  0
    3.8869   -8.2595    0.0000 C   0  0
    5.1894   -6.0109    0.0000 C   0  0
    3.8912   -5.2578    0.0000 C   0  0
    3.8933   -3.7570    0.0000 N   0  0
    2.5951   -3.0039    0.0000 C   0  0
    1.2948   -3.7516    0.0000 O   0  0
    2.5973   -1.5031    0.0000 N   0  0
    1.2990   -0.7500    0.0000 C   0  0
    1.2990    0.7500    0.0000 C   0  0
    0.0000    1.5000    0.0000 C   0  0
   -1.2990    0.7500    0.0000 C   0  0
   -1.2990   -0.7500    0.0000 C   0  0
    0.0000   -1.5000    0.0000 C   0  0
   -2.7248   -1.2135    0.0000 C   0  0
   -3.1882   -2.6402    0.0000 O   0  0
   -3.6065    0.0000    0.0000 C   0  0
   -5.1047    0.0031    0.0000 C   0  0
   -5.8532    1.3039    0.0000 C   0  0
   -5.2277    2.6532    0.0000 C   0  0
   -6.3391    3.6607    0.0000 N   0  0
   -6.1775    5.1519    0.0000 C   0  0
   -7.6398    2.9152    0.0000 C   0  0
   -9.0649    3.3834    0.0000 N   0  0
  -10.1829    2.3835    0.0000 C   0  0
   -9.8759    0.9152    0.0000 C   0  0
   -8.4509    0.4469    0.0000 C   0  0
   -8.1438   -1.0221    0.0000 N   0  0
   -8.3094   -2.1725    0.0000 C   0  0
   -9.6025   -3.4073    0.0000 C   0  0  3  0  0  0
  -11.2217   -3.1119    0.0000 C   0  0
   -9.9116   -2.8195    0.0000 C   0  0
   -8.5419   -3.3027    0.0000 C   0  0  3  0  0  0
   -7.3292   -2.1950    0.0000 C   0  0
   -8.7666   -4.6525    0.0000 O   0  0
   -7.3328    1.4469    0.0000 C   0  0
   -2.7248    1.2135    0.0000 O   0  0
  1  2  1  0
  2  3  1  0
  2  4  1  0
  4  5  1  0
  5  6  1  0
  6  7  1  0
  7  8  2  0
  7  9  1  0
  9 10  1  0
 10 11  2  0
 11 12  1  0
 12 13  2  0
 13 14  1  0
 14 15  2  0
 15 10  1  0
 14 16  1  0
 16 17  2  0
 16 18  1  0
 18 19  2  0
 19 20  1  0
 20 21  2  0
 21 22  1  0
 22 23  1  0
 22 24  1  0
 24 25  2  0
 25 26  1  0
 26 27  2  0
 27 28  1  0
 28 29  1  0
 29 30  1  0
 31 30  1  4
 31 32  1  0
 32 33  1  0
 34 33  1  4
 34 35  1  0
 35 29  1  0
 34 36  1  0
 36 31  1  0
 28 37  2  0
 37 20  1  0
 37 24  1  0
 18 38  1  0
 38 13  1  0
M  END
> <assay_chembl_id>
CHEMBL1107896

> <assay_description>
Antiproliferative activity against human LNCAP cells

> <document_journal>
Bioorg Med Chem Lett

> <molecule_chembl_id>
CHEMBL1092110

> <standard_value>
60

> <IC50_uM>
0.06

> <Activity>
Yes

> <Canonical_Smiles>
CN(C)CCNC(=O)Nc1ccc2c(c1)C(=O)/C(=C/c1cn(C)c3nccc(N4CC5CCC(C4)O5)c13)O2

$$$$

  SciTegic03142313312D

 34 39  0  0  0  0            999 V2000
    3.8912   -5.2570    0.0000 C   0  0
    3.8933   -3.7570    0.0000 N   0  0
    2.5951   -3.0039    0.0000 C   0  0
    1.2948   -3.7516    0.0000 O   0  0
    2.5973   -1.5031    0.0000 N   0  0
    1.2990   -0.7500    0.0000 C   0  0
    1.2990    0.7500    0.0000 C   0  0
    0.0000    1.5000    0.0000 C   0  0
   -1.2990    0.7500    0.0000 C   0  0
   -1.2990   -0.7500    0.0000 C   0  0
    0.0000   -1.5000    0.0000 C   0  0
   -2.7248   -1.2135    0.0000 C   0  0
   -3.1882   -2.6402    0.0000 O   0  0
   -3.6065    0.0000    0.0000 C   0  0
   -5.1047    0.0031    0.0000 C   0  0
   -5.8532    1.3039    0.0000 C   0  0
   -5.2277    2.6532    0.0000 C   0  0
   -6.3391    3.6607    0.0000 N   0  0
   -6.1775    5.1519    0.0000 C   0  0
   -7.6398    2.9152    0.0000 C   0  0
   -9.0649    3.3834    0.0000 N   0  0
  -10.1829    2.3835    0.0000 C   0  0
   -9.8759    0.9152    0.0000 C   0  0
   -8.4509    0.4469    0.0000 C   0  0
   -8.1438   -1.0221    0.0000 N   0  0
   -8.3094   -2.1725    0.0000 C   0  0
   -9.6025   -3.4073    0.0000 C   0  0  3  0  0  0
  -11.2217   -3.1119    0.0000 C   0  0
   -9.9116   -2.8195    0.0000 C   0  0
   -8.5419   -3.3027    0.0000 C   0  0  3  0  0  0
   -7.3292   -2.1950    0.0000 C   0  0
   -8.7666   -4.6525    0.0000 O   0  0
   -7.3328    1.4469    0.0000 C   0  0
   -2.7248    1.2135    0.0000 O   0  0
  1  2  1  0
  2  3  1  0
  3  4  2  0
  3  5  1  0
  5  6  1  0
  6  7  2  0
  7  8  1  0
  8  9  2  0
  9 10  1  0
 10 11  2  0
 11  6  1  0
 10 12  1  0
 12 13  2  0
 12 14  1  0
 14 15  2  0
 15 16  1  0
 16 17  2  0
 17 18  1  0
 18 19  1  0
 18 20  1  0
 20 21  2  0
 21 22  1  0
 22 23  2  0
 23 24  1  0
 24 25  1  0
 25 26  1  0
 27 26  1  4
 27 28  1  0
 28 29  1  0
 30 29  1  4
 30 31  1  0
 31 25  1  0
 30 32  1  0
 32 27  1  0
 24 33  2  0
 33 16  1  0
 33 20  1  0
 14 34  1  0
 34  9  1  0
M  END
> <assay_chembl_id>
CHEMBL1107896

> <assay_description>
Antiproliferative activity against human LNCAP cells

> <document_journal>
Bioorg Med Chem Lett

> <molecule_chembl_id>
CHEMBL1093069

> <standard_value>
140

> <IC50_uM>
0.14

> <Activity>
Yes

> <Canonical_Smiles>
CNC(=O)Nc1ccc2c(c1)C(=O)/C(=C/c1cn(C)c3nccc(N4CC5CCC(C4)O5)c13)O2

$$$$

  SciTegic03142313312D

 32 36  0  0  0  0            999 V2000
    3.8912   -5.2570    0.0000 C   0  0
    3.8933   -3.7570    0.0000 N   0  0
    2.5951   -3.0039    0.0000 C   0  0
    1.2948   -3.7516    0.0000 O   0  0
    2.5973   -1.5031    0.0000 N   0  0
    1.2990   -0.7500    0.0000 C   0  0
    1.2990    0.7500    0.0000 C   0  0
    0.0000    1.5000    0.0000 C   0  0
   -1.2990    0.7500    0.0000 C   0  0
   -1.2990   -0.7500    0.0000 C   0  0
    0.0000   -1.5000    0.0000 C   0  0
   -2.7248   -1.2135    0.0000 C   0  0
   -3.1882   -2.6402    0.0000 O   0  0
   -3.6065    0.0000    0.0000 C   0  0
   -5.1047    0.0031    0.0000 C   0  0
   -5.8532    1.3039    0.0000 C   0  0
   -5.2277    2.6532    0.0000 C   0  0
   -6.3391    3.6607    0.0000 N   0  0
   -6.1775    5.1519    0.0000 C   0  0
   -7.6398    2.9152    0.0000 C   0  0
   -9.0649    3.3834    0.0000 N   0  0
  -10.1829    2.3835    0.0000 C   0  0
   -9.8759    0.9152    0.0000 C   0  0
   -8.4509    0.4469    0.0000 C   0  0
   -8.1438   -1.0221    0.0000 C   0  0
   -9.2602   -2.0239    0.0000 C   0  0
   -8.9509   -3.4917    0.0000 C   0  0
   -7.5251   -3.9577    0.0000 C   0  0
   -6.4087   -2.9559    0.0000 C   0  0
   -6.7180   -1.4882    0.0000 C   0  0
   -7.3328    1.4469    0.0000 C   0  0
   -2.7248    1.2135    0.0000 O   0  0
  1  2  1  0
  2  3  1  0
  3  4  2  0
  3  5  1  0
  5  6  1  0
  6  7  2  0
  7  8  1  0
  8  9  2  0
  9 10  1  0
 10 11  2  0
 11  6  1  0
 10 12  1  0
 12 13  2  0
 12 14  1  0
 14 15  2  0
 15 16  1  0
 16 17  2  0
 17 18  1  0
 18 19  1  0
 18 20  1  0
 20 21  2  0
 21 22  1  0
 22 23  2  0
 23 24  1  0
 24 25  1  0
 25 26  2  0
 26 27  1  0
 27 28  2  0
 28 29  1  0
 29 30  2  0
 30 25  1  0
 24 31  2  0
 31 16  1  0
 31 20  1  0
 14 32  1  0
 32  9  1  0
M  END
> <assay_chembl_id>
CHEMBL1107896

> <assay_description>
Antiproliferative activity against human LNCAP cells

> <document_journal>
Bioorg Med Chem Lett

> <molecule_chembl_id>
CHEMBL1090434

> <standard_value>
60000

> <IC50_uM>
60

> <Activity>
No

> <Canonical_Smiles>
CNC(=O)Nc1ccc2c(c1)C(=O)/C(=C/c1cn(C)c3nccc(-c4ccccc4)c13)O2

$$$$

  SciTegic03142313312D

 28 32  0  0  0  0            999 V2000
   -0.6923   -4.0811    0.0000 C   0  0
    0.3114   -2.9665    0.0000 N   0  0
    1.8032   -3.1233    0.0000 C   0  0
    2.4133   -1.7530    0.0000 C   0  0
    3.8794   -1.4442    0.0000 C   0  0
    4.8823   -2.5608    0.0000 C   0  0
    4.5510   -4.0107    0.0000 O   0  0
    5.8470   -4.7643    0.0000 C   0  0
    6.1541   -6.2326    0.0000 C   0  0
    7.5791   -6.7008    0.0000 C   0  0
    8.6971   -5.7008    0.0000 C   0  0
    8.3901   -4.2325    0.0000 C   0  0
    9.5081   -3.2325    0.0000 O   0  0
    6.9650   -3.7643    0.0000 C   0  0
    6.3600   -2.3926    0.0000 C   0  0
    7.1067   -1.0917    0.0000 O   0  0
    1.2990   -0.7500    0.0000 C   0  0
    1.2990    0.7500    0.0000 C   0  0
    2.5987    1.5004    0.0000 C   0  0
    3.8991    0.7525    0.0000 C   0  0
    5.1969    1.5046    0.0000 C   0  0
    5.1945    3.0046    0.0000 C   0  0
    3.8943    3.7525    0.0000 C   0  0
    2.5964    3.0004    0.0000 C   0  0
    0.0000    1.5000    0.0000 C   0  0
   -1.2990    0.7500    0.0000 C   0  0
   -1.2990   -0.7500    0.0000 N   0  0
    0.0000   -1.5000    0.0000 C   0  0
  1  2  1  0
  2  3  1  0
  3  4  2  0
  4  5  1  0
  5  6  2  0
  6  7  1  0
  7  8  1  0
  8  9  2  0
  9 10  1  0
 10 11  2  0
 11 12  1  0
 12 13  1  0
 12 14  2  0
 14  8  1  0
 14 15  1  0
 15  6  1  0
 15 16  2  0
  4 17  1  0
 17 18  2  0
 18 19  1  0
 19 20  2  0
 20 21  1  0
 21 22  2  0
 22 23  1  0
 23 24  2  0
 24 19  1  0
 18 25  1  0
 25 26  2  0
 26 27  1  0
 27 28  2  0
 28 17  1  0
 28  2  1  0
M  END
> <assay_chembl_id>
CHEMBL1107896

> <assay_description>
Antiproliferative activity against human LNCAP cells

> <document_journal>
Bioorg Med Chem Lett

> <molecule_chembl_id>
CHEMBL1090043

> <standard_value>
200

> <IC50_uM>
0.2

> <Activity>
Yes

> <Canonical_Smiles>
Cn1cc(/C=C2\Oc3cccc(O)c3C2=O)c2c(-c3ccccc3)ccnc21

$$$$

  SciTegic03142313312D

 29 33  0  0  0  0            999 V2000
   -0.6923   -4.0811    0.0000 C   0  0
    0.3114   -2.9665    0.0000 N   0  0
    1.8032   -3.1233    0.0000 C   0  0
    2.4133   -1.7530    0.0000 C   0  0
    3.8794   -1.4442    0.0000 C   0  0
    4.8823   -2.5608    0.0000 C   0  0
    4.5510   -4.0107    0.0000 O   0  0
    5.8470   -4.7643    0.0000 C   0  0
    6.1541   -6.2326    0.0000 C   0  0
    7.5791   -6.7008    0.0000 C   0  0
    7.8862   -8.1690    0.0000 O   0  0
    8.6971   -5.7008    0.0000 C   0  0
    8.3901   -4.2325    0.0000 C   0  0
    9.5081   -3.2325    0.0000 O   0  0
    6.9650   -3.7643    0.0000 C   0  0
    6.3600   -2.3926    0.0000 C   0  0
    7.1067   -1.0917    0.0000 O   0  0
    1.2990   -0.7500    0.0000 C   0  0
    1.2990    0.7500    0.0000 C   0  0
    2.5987    1.5004    0.0000 C   0  0
    3.8991    0.7525    0.0000 C   0  0
    5.1969    1.5046    0.0000 C   0  0
    5.1945    3.0046    0.0000 C   0  0
    3.8943    3.7525    0.0000 C   0  0
    2.5964    3.0004    0.0000 C   0  0
    0.0000    1.5000    0.0000 C   0  0
   -1.2990    0.7500    0.0000 C   0  0
   -1.2990   -0.7500    0.0000 N   0  0
    0.0000   -1.5000    0.0000 C   0  0
  1  2  1  0
  2  3  1  0
  3  4  2  0
  4  5  1  0
  5  6  2  0
  6  7  1  0
  7  8  1  0
  8  9  2  0
  9 10  1  0
 10 11  1  0
 10 12  2  0
 12 13  1  0
 13 14  1  0
 13 15  2  0
 15  8  1  0
 15 16  1  0
 16  6  1  0
 16 17  2  0
  4 18  1  0
 18 19  2  0
 19 20  1  0
 20 21  2  0
 21 22  1  0
 22 23  2  0
 23 24  1  0
 24 25  2  0
 25 20  1  0
 19 26  1  0
 26 27  2  0
 27 28  1  0
 28 29  2  0
 29 18  1  0
 29  2  1  0
M  END
> <assay_chembl_id>
CHEMBL1107901

> <assay_description>
Cytotoxicity against human LNCAP cells

> <document_journal>
Bioorg Med Chem Lett

> <molecule_chembl_id>
CHEMBL1091456

> <standard_value>
77

> <IC50_uM>
0.077

> <Activity>
Yes

> <Canonical_Smiles>
Cn1cc(/C=C2\Oc3cc(O)cc(O)c3C2=O)c2c(-c3ccccc3)ccnc21

$$$$

  SciTegic03142313312D

 33 37  0  0  0  0            999 V2000
    7.7833   -6.0152    0.0000 C   0  0
    6.4870   -5.2605    0.0000 N   0  0
    5.1855   -6.0062    0.0000 C   0  0
    6.4915   -3.7597    0.0000 C   0  0
    7.7931   -3.0140    0.0000 O   0  0
    5.1945   -3.0045    0.0000 C   0  0
    5.1969   -1.5045    0.0000 C   0  0
    3.8991   -0.7525    0.0000 C   0  0
    2.5987   -1.5004    0.0000 C   0  0
    1.2990   -0.7500    0.0000 C   0  0
    1.2990    0.7500    0.0000 C   0  0
    0.0000    1.5000    0.0000 C   0  0
   -1.2990    0.7500    0.0000 N   0  0
   -1.2990   -0.7500    0.0000 C   0  0
    0.0000   -1.5000    0.0000 C   0  0
   -0.3114   -2.9665    0.0000 C   0  0
    0.6890   -4.0818    0.0000 C   0  0
    0.2235   -5.5086    0.0000 C   0  0
   -1.1979   -5.9466    0.0000 O   0  0
   -1.2025   -7.4458    0.0000 C   0  0
   -2.3205   -8.4459    0.0000 C   0  0
   -2.0135   -9.9141    0.0000 C   0  0
   -0.5884  -10.3823    0.0000 C   0  0
    0.5296   -9.3823    0.0000 C   0  0
    1.9546   -9.8505    0.0000 O   0  0
    0.2225   -7.9141    0.0000 C   0  0
    1.1079   -6.7042    0.0000 C   0  0
    2.6079   -6.7004    0.0000 O   0  0
   -1.8032   -3.1233    0.0000 C   0  0
   -2.4133   -1.7530    0.0000 N   0  0
   -3.8805   -1.4410    0.0000 C   0  0
    2.5965   -3.0004    0.0000 C   0  0
    3.8943   -3.7525    0.0000 C   0  0
  1  2  1  0
  2  3  1  0
  2  4  1  0
  4  5  2  0
  4  6  1  0
  6  7  2  0
  7  8  1  0
  8  9  2  0
  9 10  1  0
 10 11  2  0
 11 12  1  0
 12 13  2  0
 13 14  1  0
 14 15  2  0
 15 10  1  0
 15 16  1  0
 16 17  1  0
 17 18  2  0
 18 19  1  0
 19 20  1  0
 20 21  2  0
 21 22  1  0
 22 23  2  0
 23 24  1  0
 24 25  1  0
 24 26  2  0
 26 20  1  0
 26 27  1  0
 27 18  1  0
 27 28  2  0
 16 29  2  0
 29 30  1  0
 30 14  1  0
 30 31  1  0
  9 32  1  0
 32 33  2  0
 33  6  1  0
M  END
> <assay_chembl_id>
CHEMBL1107901

> <assay_description>
Cytotoxicity against human LNCAP cells

> <document_journal>
Bioorg Med Chem Lett

> <molecule_chembl_id>
CHEMBL1092815

> <standard_value>
4

> <IC50_uM>
0.004

> <Activity>
Yes

> <Canonical_Smiles>
CN(C)C(=O)c1ccc(-c2ccnc3c2c(/C=C2\Oc4cccc(O)c4C2=O)cn3C)cc1

$$$$

  SciTegic03142313312D

 33 37  0  0  0  0            999 V2000
    7.7833   -6.0152    0.0000 C   0  0
    6.4870   -5.2605    0.0000 N   0  0
    5.1855   -6.0062    0.0000 C   0  0
    6.4915   -3.7597    0.0000 C   0  0
    7.7931   -3.0140    0.0000 O   0  0
    5.1945   -3.0045    0.0000 C   0  0
    5.1969   -1.5045    0.0000 C   0  0
    3.8991   -0.7525    0.0000 C   0  0
    2.5987   -1.5004    0.0000 N   0  0
    1.2990   -0.7500    0.0000 C   0  0
    1.2990    0.7500    0.0000 C   0  0
    0.0000    1.5000    0.0000 C   0  0
   -1.2990    0.7500    0.0000 N   0  0
   -1.2990   -0.7500    0.0000 C   0  0
    0.0000   -1.5000    0.0000 C   0  0
   -0.3114   -2.9665    0.0000 C   0  0
    0.6890   -4.0818    0.0000 C   0  0
    0.2235   -5.5086    0.0000 C   0  0
   -1.1979   -5.9466    0.0000 O   0  0
   -1.2025   -7.4458    0.0000 C   0  0
   -2.3205   -8.4459    0.0000 C   0  0
   -2.0135   -9.9141    0.0000 C   0  0
   -0.5884  -10.3823    0.0000 C   0  0
    0.5296   -9.3823    0.0000 C   0  0
    1.9546   -9.8505    0.0000 O   0  0
    0.2225   -7.9141    0.0000 C   0  0
    1.1079   -6.7042    0.0000 C   0  0
    2.6079   -6.7004    0.0000 O   0  0
   -1.8032   -3.1233    0.0000 C   0  0
   -2.4133   -1.7530    0.0000 N   0  0
   -3.8805   -1.4410    0.0000 C   0  0
    2.5965   -3.0004    0.0000 C   0  0
    3.8943   -3.7525    0.0000 C   0  0
  1  2  1  0
  2  3  1  0
  2  4  1  0
  4  5  2  0
  4  6  1  0
  6  7  1  0
  7  8  1  0
  8  9  1  0
  9 10  1  0
 10 11  2  0
 11 12  1  0
 12 13  2  0
 13 14  1  0
 14 15  2  0
 15 10  1  0
 15 16  1  0
 16 17  1  0
 17 18  2  0
 18 19  1  0
 19 20  1  0
 20 21  2  0
 21 22  1  0
 22 23  2  0
 23 24  1  0
 24 25  1  0
 24 26  2  0
 26 20  1  0
 26 27  1  0
 27 18  1  0
 27 28  2  0
 16 29  2  0
 29 30  1  0
 30 14  1  0
 30 31  1  0
  9 32  1  0
 32 33  1  0
 33  6  1  0
M  END
> <assay_chembl_id>
CHEMBL1107901

> <assay_description>
Cytotoxicity against human LNCAP cells

> <document_journal>
Bioorg Med Chem Lett

> <molecule_chembl_id>
CHEMBL1091491

> <standard_value>
1

> <IC50_uM>
0.001

> <Activity>
Yes

> <Canonical_Smiles>
CN(C)C(=O)C1CCN(c2ccnc3c2c(/C=C2\Oc4cccc(O)c4C2=O)cn3C)CC1

$$$$

  SciTegic03142313312D

 36 41  0  0  0  0            999 V2000
   -0.6923   -4.0811    0.0000 C   0  0
    0.3114   -2.9665    0.0000 N   0  0
    1.8032   -3.1233    0.0000 C   0  0
    2.4133   -1.7530    0.0000 C   0  0
    3.8794   -1.4442    0.0000 C   0  0
    4.8823   -2.5608    0.0000 C   0  0
    4.5510   -4.0107    0.0000 O   0  0
    5.8470   -4.7643    0.0000 C   0  0
    6.1541   -6.2326    0.0000 C   0  0
    7.5791   -6.7008    0.0000 C   0  0
    8.6971   -5.7008    0.0000 C   0  0
    8.3901   -4.2325    0.0000 C   0  0
    9.5081   -3.2325    0.0000 O   0  0
    6.9650   -3.7643    0.0000 C   0  0
    6.3600   -2.3926    0.0000 C   0  0
    7.1067   -1.0917    0.0000 O   0  0
    1.2990   -0.7500    0.0000 C   0  0
    1.2990    0.7500    0.0000 C   0  0
    2.5987    1.5004    0.0000 C   0  0
    3.8991    0.7525    0.0000 C   0  0
    5.1969    1.5046    0.0000 C   0  0
    5.1945    3.0046    0.0000 C   0  0
    6.4915    3.7597    0.0000 C   0  0
    7.7930    3.0141    0.0000 O   0  0
    6.4870    5.2606    0.0000 N   0  0
    7.7822    6.0172    0.0000 C   0  0
    7.7746    7.5172    0.0000 C   0  0
    6.4718    8.2606    0.0000 O   0  0
    5.1766    7.5041    0.0000 C   0  0
    5.1842    6.0041    0.0000 C   0  0
    3.8943    3.7525    0.0000 C   0  0
    2.5964    3.0004    0.0000 C   0  0
    0.0000    1.5000    0.0000 C   0  0
   -1.2990    0.7500    0.0000 C   0  0
   -1.2990   -0.7500    0.0000 N   0  0
    0.0000   -1.5000    0.0000 C   0  0
  1  2  1  0
  2  3  1  0
  3  4  2  0
  4  5  1  0
  5  6  2  0
  6  7  1  0
  7  8  1  0
  8  9  2  0
  9 10  1  0
 10 11  2  0
 11 12  1  0
 12 13  1  0
 12 14  2  0
 14  8  1  0
 14 15  1  0
 15  6  1  0
 15 16  2  0
  4 17  1  0
 17 18  2  0
 18 19  1  0
 19 20  2  0
 20 21  1  0
 21 22  2  0
 22 23  1  0
 23 24  2  0
 23 25  1  0
 25 26  1  0
 26 27  1  0
 27 28  1  0
 28 29  1  0
 29 30  1  0
 30 25  1  0
 22 31  1  0
 31 32  2  0
 32 19  1  0
 18 33  1  0
 33 34  2  0
 34 35  1  0
 35 36  2  0
 36 17  1  0
 36  2  1  0
M  END
> <assay_chembl_id>
CHEMBL1107901

> <assay_description>
Cytotoxicity against human LNCAP cells

> <document_journal>
Bioorg Med Chem Lett

> <molecule_chembl_id>
CHEMBL1091492

> <standard_value>
1

> <IC50_uM>
0.001

> <Activity>
Yes

> <Canonical_Smiles>
Cn1cc(/C=C2\Oc3cccc(O)c3C2=O)c2c(-c3ccc(C(=O)N4CCOCC4)cc3)ccnc21

$$$$

  SciTegic03142313312D

 38 44  0  0  0  0            999 V2000
   -0.6923   -4.0811    0.0000 C   0  0
    0.3114   -2.9665    0.0000 N   0  0
    1.8032   -3.1233    0.0000 C   0  0
    2.4133   -1.7530    0.0000 C   0  0
    3.8794   -1.4442    0.0000 C   0  0
    4.8823   -2.5608    0.0000 C   0  0
    4.5510   -4.0107    0.0000 O   0  0
    5.8470   -4.7643    0.0000 C   0  0
    6.1541   -6.2326    0.0000 C   0  0
    7.5791   -6.7008    0.0000 C   0  0
    8.6971   -5.7008    0.0000 C   0  0
    8.3901   -4.2325    0.0000 C   0  0
    9.5081   -3.2325    0.0000 O   0  0
    6.9650   -3.7643    0.0000 C   0  0
    6.3600   -2.3926    0.0000 C   0  0
    7.1067   -1.0917    0.0000 O   0  0
    1.2990   -0.7500    0.0000 C   0  0
    1.2990    0.7500    0.0000 C   0  0
    2.5987    1.5004    0.0000 C   0  0
    3.8991    0.7525    0.0000 C   0  0
    5.1969    1.5046    0.0000 C   0  0
    5.1945    3.0046    0.0000 C   0  0
    6.4915    3.7597    0.0000 C   0  0
    7.7930    3.0141    0.0000 O   0  0
    6.4870    5.2606    0.0000 N   0  0
    6.8806    6.3541    0.0000 C   0  0
    8.3957    7.3036    0.0000 C   0  0  3  0  0  0
    9.9224    6.6886    0.0000 C   0  0
    8.5802    6.6657    0.0000 C   0  0
    7.3357    7.4145    0.0000 C   0  0  3  0  0  0
    5.9250    6.5734    0.0000 C   0  0
    7.8273    8.6916    0.0000 O   0  0
    3.8943    3.7525    0.0000 C   0  0
    2.5964    3.0004    0.0000 C   0  0
    0.0000    1.5000    0.0000 C   0  0
   -1.2990    0.7500    0.0000 C   0  0
   -1.2990   -0.7500    0.0000 N   0  0
    0.0000   -1.5000    0.0000 C   0  0
  1  2  1  0
  2  3  1  0
  3  4  2  0
  4  5  1  0
  5  6  2  0
  6  7  1  0
  7  8  1  0
  8  9  2  0
  9 10  1  0
 10 11  2  0
 11 12  1  0
 12 13  1  0
 12 14  2  0
 14  8  1  0
 14 15  1  0
 15  6  1  0
 15 16  2  0
  4 17  1  0
 17 18  2  0
 18 19  1  0
 19 20  2  0
 20 21  1  0
 21 22  2  0
 22 23  1  0
 23 24  2  0
 23 25  1  0
 25 26  1  0
 27 26  1  4
 27 28  1  0
 28 29  1  0
 30 29  1  4
 30 31  1  0
 31 25  1  0
 30 32  1  0
 32 27  1  0
 22 33  1  0
 33 34  2  0
 34 19  1  0
 18 35  1  0
 35 36  2  0
 36 37  1  0
 37 38  2  0
 38 17  1  0
 38  2  1  0
M  END
> <assay_chembl_id>
CHEMBL1107901

> <assay_description>
Cytotoxicity against human LNCAP cells

> <document_journal>
Bioorg Med Chem Lett

> <molecule_chembl_id>
CHEMBL1092120

> <standard_value>
8

> <IC50_uM>
0.008

> <Activity>
Yes

> <Canonical_Smiles>
Cn1cc(/C=C2\Oc3cccc(O)c3C2=O)c2c(-c3ccc(C(=O)N4CC5CCC(C4)O5)cc3)ccnc21

$$$$

  SciTegic03142313312D

 38 44  0  0  0  0            999 V2000
   -0.6923   -4.0811    0.0000 C   0  0
    0.3114   -2.9665    0.0000 N   0  0
    1.8032   -3.1233    0.0000 C   0  0
    2.4133   -1.7530    0.0000 C   0  0
    3.8794   -1.4442    0.0000 C   0  0
    4.8823   -2.5608    0.0000 C   0  0
    4.5510   -4.0107    0.0000 O   0  0
    5.8470   -4.7643    0.0000 C   0  0
    6.1541   -6.2326    0.0000 C   0  0
    7.5791   -6.7008    0.0000 C   0  0
    8.6971   -5.7008    0.0000 C   0  0
    8.3901   -4.2325    0.0000 C   0  0
    9.5081   -3.2325    0.0000 O   0  0
    6.9650   -3.7643    0.0000 C   0  0
    6.3600   -2.3926    0.0000 C   0  0
    7.1067   -1.0917    0.0000 O   0  0
    1.2990   -0.7500    0.0000 C   0  0
    1.2990    0.7500    0.0000 C   0  0
    2.5987    1.5004    0.0000 N   0  0
    3.8991    0.7525    0.0000 C   0  0
    5.1969    1.5046    0.0000 C   0  0
    5.1945    3.0046    0.0000 C   0  0
    6.4915    3.7597    0.0000 C   0  0
    7.7930    3.0141    0.0000 O   0  0
    6.4870    5.2606    0.0000 N   0  0
    6.8806    6.3541    0.0000 C   0  0
    8.3957    7.3036    0.0000 C   0  0  3  0  0  0
    9.9224    6.6886    0.0000 C   0  0
    8.5802    6.6657    0.0000 C   0  0
    7.3357    7.4145    0.0000 C   0  0  3  0  0  0
    5.9250    6.5734    0.0000 C   0  0
    7.8273    8.6916    0.0000 O   0  0
    3.8943    3.7525    0.0000 C   0  0
    2.5964    3.0004    0.0000 C   0  0
    0.0000    1.5000    0.0000 C   0  0
   -1.2990    0.7500    0.0000 C   0  0
   -1.2990   -0.7500    0.0000 N   0  0
    0.0000   -1.5000    0.0000 C   0  0
  1  2  1  0
  2  3  1  0
  3  4  2  0
  4  5  1  0
  5  6  2  0
  6  7  1  0
  7  8  1  0
  8  9  2  0
  9 10  1  0
 10 11  2  0
 11 12  1  0
 12 13  1  0
 12 14  2  0
 14  8  1  0
 14 15  1  0
 15  6  1  0
 15 16  2  0
  4 17  1  0
 17 18  2  0
 18 19  1  0
 19 20  1  0
 20 21  1  0
 21 22  1  0
 22 23  1  0
 23 24  2  0
 23 25  1  0
 25 26  1  0
 27 26  1  4
 27 28  1  0
 28 29  1  0
 30 29  1  4
 30 31  1  0
 31 25  1  0
 30 32  1  0
 32 27  1  0
 22 33  1  0
 33 34  1  0
 34 19  1  0
 18 35  1  0
 35 36  2  0
 36 37  1  0
 37 38  2  0
 38 17  1  0
 38  2  1  0
M  END
> <assay_chembl_id>
CHEMBL1107901

> <assay_description>
Cytotoxicity against human LNCAP cells

> <document_journal>
Bioorg Med Chem Lett

> <molecule_chembl_id>
CHEMBL1090388

> <standard_value>
1

> <IC50_uM>
0.001

> <Activity>
Yes

> <Canonical_Smiles>
Cn1cc(/C=C2\Oc3cccc(O)c3C2=O)c2c(N3CCC(C(=O)N4CC5CCC(C4)O5)CC3)ccnc21

$$$$

  SciTegic03142313312D

 37 42  0  0  0  0            999 V2000
    6.4643   -9.7605    0.0000 C   0  0
    6.4719   -8.2606    0.0000 N   0  0
    7.7747   -7.5171    0.0000 C   0  0
    7.7822   -6.0171    0.0000 C   0  0
    6.4870   -5.2605    0.0000 N   0  0
    6.4915   -3.7597    0.0000 C   0  0
    7.7931   -3.0140    0.0000 O   0  0
    5.1945   -3.0045    0.0000 C   0  0
    5.1969   -1.5045    0.0000 C   0  0
    3.8991   -0.7525    0.0000 C   0  0
    2.5987   -1.5004    0.0000 C   0  0
    1.2990   -0.7500    0.0000 C   0  0
    1.2990    0.7500    0.0000 C   0  0
    0.0000    1.5000    0.0000 C   0  0
   -1.2990    0.7500    0.0000 N   0  0
   -1.2990   -0.7500    0.0000 C   0  0
    0.0000   -1.5000    0.0000 C   0  0
   -0.3114   -2.9665    0.0000 C   0  0
    0.6890   -4.0818    0.0000 C   0  0
    0.2235   -5.5086    0.0000 C   0  0
   -1.1979   -5.9466    0.0000 O   0  0
   -1.2025   -7.4458    0.0000 C   0  0
   -2.3205   -8.4459    0.0000 C   0  0
   -2.0135   -9.9141    0.0000 C   0  0
   -0.5884  -10.3823    0.0000 C   0  0
    0.5296   -9.3823    0.0000 C   0  0
    1.9546   -9.8505    0.0000 O   0  0
    0.2225   -7.9141    0.0000 C   0  0
    1.1079   -6.7042    0.0000 C   0  0
    2.6079   -6.7004    0.0000 O   0  0
   -1.8032   -3.1233    0.0000 C   0  0
   -2.4133   -1.7530    0.0000 N   0  0
   -3.8805   -1.4410    0.0000 C   0  0
    2.5965   -3.0004    0.0000 C   0  0
    3.8943   -3.7525    0.0000 C   0  0
    5.1842   -6.0040    0.0000 C   0  0
    5.1766   -7.5040    0.0000 C   0  0
  1  2  1  0
  2  3  1  0
  3  4  1  0
  4  5  1  0
  5  6  1  0
  6  7  2  0
  6  8  1  0
  8  9  2  0
  9 10  1  0
 10 11  2  0
 11 12  1  0
 12 13  2  0
 13 14  1  0
 14 15  2  0
 15 16  1  0
 16 17  2  0
 17 12  1  0
 17 18  1  0
 18 19  1  0
 19 20  2  0
 20 21  1  0
 21 22  1  0
 22 23  2  0
 23 24  1  0
 24 25  2  0
 25 26  1  0
 26 27  1  0
 26 28  2  0
 28 22  1  0
 28 29  1  0
 29 20  1  0
 29 30  2  0
 18 31  2  0
 31 32  1  0
 32 16  1  0
 32 33  1  0
 11 34  1  0
 34 35  2  0
 35  8  1  0
  5 36  1  0
 36 37  1  0
 37  2  1  0
M  END
> <assay_chembl_id>
CHEMBL1107901

> <assay_description>
Cytotoxicity against human LNCAP cells

> <document_journal>
Bioorg Med Chem Lett

> <molecule_chembl_id>
CHEMBL1092485

> <standard_value>
9

> <IC50_uM>
0.009

> <Activity>
Yes

> <Canonical_Smiles>
CN1CCN(C(=O)c2ccc(-c3ccnc4c3c(/C=C3\Oc5cccc(O)c5C3=O)cn4C)cc2)CC1

$$$$

  SciTegic03142313312D

 39 44  0  0  0  0            999 V2000
   -0.6923   -4.0811    0.0000 C   0  0
    0.3114   -2.9665    0.0000 N   0  0
    1.8032   -3.1233    0.0000 C   0  0
    2.4133   -1.7530    0.0000 C   0  0
    3.8794   -1.4442    0.0000 C   0  0
    4.8823   -2.5608    0.0000 C   0  0
    4.5510   -4.0107    0.0000 O   0  0
    5.8470   -4.7643    0.0000 C   0  0
    6.1541   -6.2326    0.0000 C   0  0
    7.5791   -6.7008    0.0000 C   0  0
    8.6971   -5.7008    0.0000 C   0  0
    8.3901   -4.2325    0.0000 C   0  0
    9.5081   -3.2325    0.0000 O   0  0
    6.9650   -3.7643    0.0000 C   0  0
    6.3600   -2.3926    0.0000 C   0  0
    7.1067   -1.0917    0.0000 O   0  0
    1.2990   -0.7500    0.0000 C   0  0
    1.2990    0.7500    0.0000 C   0  0
    2.5987    1.5004    0.0000 C   0  0
    3.8991    0.7525    0.0000 C   0  0
    5.1969    1.5046    0.0000 C   0  0
    5.1945    3.0046    0.0000 C   0  0
    6.4915    3.7597    0.0000 C   0  0
    7.7930    3.0141    0.0000 O   0  0
    6.4870    5.2606    0.0000 N   0  0
    7.7822    6.0172    0.0000 C   0  0
    7.7746    7.5172    0.0000 C   0  0
    6.4718    8.2606    0.0000 N   0  0
    6.4611    9.7614    0.0000 C   0  0
    5.1566   10.5034    0.0000 C   0  0
    5.1459   12.0034    0.0000 O   0  0
    5.1766    7.5041    0.0000 C   0  0
    5.1842    6.0041    0.0000 C   0  0
    3.8943    3.7525    0.0000 C   0  0
    2.5964    3.0004    0.0000 C   0  0
    0.0000    1.5000    0.0000 C   0  0
   -1.2990    0.7500    0.0000 C   0  0
   -1.2990   -0.7500    0.0000 N   0  0
    0.0000   -1.5000    0.0000 C   0  0
  1  2  1  0
  2  3  1  0
  3  4  2  0
  4  5  1  0
  5  6  2  0
  6  7  1  0
  7  8  1  0
  8  9  2  0
  9 10  1  0
 10 11  2  0
 11 12  1  0
 12 13  1  0
 12 14  2  0
 14  8  1  0
 14 15  1  0
 15  6  1  0
 15 16  2  0
  4 17  1  0
 17 18  2  0
 18 19  1  0
 19 20  2  0
 20 21  1  0
 21 22  2  0
 22 23  1  0
 23 24  2  0
 23 25  1  0
 25 26  1  0
 26 27  1  0
 27 28  1  0
 28 29  1  0
 29 30  1  0
 30 31  1  0
 28 32  1  0
 32 33  1  0
 33 25  1  0
 22 34  1  0
 34 35  2  0
 35 19  1  0
 18 36  1  0
 36 37  2  0
 37 38  1  0
 38 39  2  0
 39 17  1  0
 39  2  1  0
M  END
> <assay_chembl_id>
CHEMBL1107901

> <assay_description>
Cytotoxicity against human LNCAP cells

> <document_journal>
Bioorg Med Chem Lett

> <molecule_chembl_id>
CHEMBL1092781

> <standard_value>
1

> <IC50_uM>
0.001

> <Activity>
Yes

> <Canonical_Smiles>
Cn1cc(/C=C2\Oc3cccc(O)c3C2=O)c2c(-c3ccc(C(=O)N4CCN(CCO)CC4)cc3)ccnc21

$$$$

  SciTegic03142313312D

 39 44  0  0  0  0            999 V2000
   -0.6923   -4.0811    0.0000 C   0  0
    0.3114   -2.9665    0.0000 N   0  0
    1.8032   -3.1233    0.0000 C   0  0
    2.4133   -1.7530    0.0000 C   0  0
    3.8794   -1.4442    0.0000 C   0  0
    4.8823   -2.5608    0.0000 C   0  0
    4.5510   -4.0107    0.0000 O   0  0
    5.8470   -4.7643    0.0000 C   0  0
    6.1541   -6.2326    0.0000 C   0  0
    7.5791   -6.7008    0.0000 C   0  0
    8.6971   -5.7008    0.0000 C   0  0
    8.3901   -4.2325    0.0000 C   0  0
    9.5081   -3.2325    0.0000 O   0  0
    6.9650   -3.7643    0.0000 C   0  0
    6.3600   -2.3926    0.0000 C   0  0
    7.1067   -1.0917    0.0000 O   0  0
    1.2990   -0.7500    0.0000 C   0  0
    1.2990    0.7500    0.0000 C   0  0
    2.5987    1.5004    0.0000 N   0  0
    3.8991    0.7525    0.0000 C   0  0
    5.1969    1.5046    0.0000 C   0  0
    5.1945    3.0046    0.0000 C   0  0
    6.4915    3.7597    0.0000 C   0  0
    7.7930    3.0141    0.0000 O   0  0
    6.4870    5.2606    0.0000 N   0  0
    7.7822    6.0172    0.0000 C   0  0
    7.7746    7.5172    0.0000 C   0  0
    6.4718    8.2606    0.0000 N   0  0
    6.4611    9.7614    0.0000 C   0  0
    5.1566   10.5034    0.0000 C   0  0
    5.1459   12.0034    0.0000 O   0  0
    5.1766    7.5041    0.0000 C   0  0
    5.1842    6.0041    0.0000 C   0  0
    3.8943    3.7525    0.0000 C   0  0
    2.5964    3.0004    0.0000 C   0  0
    0.0000    1.5000    0.0000 C   0  0
   -1.2990    0.7500    0.0000 C   0  0
   -1.2990   -0.7500    0.0000 N   0  0
    0.0000   -1.5000    0.0000 C   0  0
  1  2  1  0
  2  3  1  0
  3  4  2  0
  4  5  1  0
  5  6  2  0
  6  7  1  0
  7  8  1  0
  8  9  2  0
  9 10  1  0
 10 11  2  0
 11 12  1  0
 12 13  1  0
 12 14  2  0
 14  8  1  0
 14 15  1  0
 15  6  1  0
 15 16  2  0
  4 17  1  0
 17 18  2  0
 18 19  1  0
 19 20  1  0
 20 21  1  0
 21 22  1  0
 22 23  1  0
 23 24  2  0
 23 25  1  0
 25 26  1  0
 26 27  1  0
 27 28  1  0
 28 29  1  0
 29 30  1  0
 30 31  1  0
 28 32  1  0
 32 33  1  0
 33 25  1  0
 22 34  1  0
 34 35  1  0
 35 19  1  0
 18 36  1  0
 36 37  2  0
 37 38  1  0
 38 39  2  0
 39 17  1  0
 39  2  1  0
M  END
> <assay_chembl_id>
CHEMBL1107901

> <assay_description>
Cytotoxicity against human LNCAP cells

> <document_journal>
Bioorg Med Chem Lett

> <molecule_chembl_id>
CHEMBL1093754

> <standard_value>
1

> <IC50_uM>
0.001

> <Activity>
Yes

> <Canonical_Smiles>
Cn1cc(/C=C2\Oc3cccc(O)c3C2=O)c2c(N3CCC(C(=O)N4CCN(CCO)CC4)CC3)ccnc21

$$$$

  SciTegic03142313312D

 40 45  0  0  0  0            999 V2000
   -0.2237   -5.5078    0.0000 C   0  0
   -0.6890   -4.0818    0.0000 C   0  0
    0.3114   -2.9665    0.0000 N   0  0
    1.8032   -3.1233    0.0000 C   0  0
    2.4133   -1.7530    0.0000 C   0  0
    3.8794   -1.4442    0.0000 C   0  0
    4.8823   -2.5608    0.0000 C   0  0
    4.5510   -4.0107    0.0000 O   0  0
    5.8470   -4.7643    0.0000 C   0  0
    6.1541   -6.2326    0.0000 C   0  0
    7.5791   -6.7008    0.0000 C   0  0
    8.6971   -5.7008    0.0000 C   0  0
    8.3901   -4.2325    0.0000 C   0  0
    9.5081   -3.2325    0.0000 O   0  0
    6.9650   -3.7643    0.0000 C   0  0
    6.3600   -2.3926    0.0000 C   0  0
    7.1067   -1.0917    0.0000 O   0  0
    1.2990   -0.7500    0.0000 C   0  0
    1.2990    0.7500    0.0000 C   0  0
    2.5987    1.5004    0.0000 C   0  0
    3.8991    0.7525    0.0000 C   0  0
    5.1969    1.5046    0.0000 C   0  0
    5.1945    3.0046    0.0000 C   0  0
    6.4915    3.7597    0.0000 C   0  0
    7.7930    3.0141    0.0000 O   0  0
    6.4870    5.2606    0.0000 N   0  0
    7.7822    6.0172    0.0000 C   0  0
    7.7746    7.5172    0.0000 C   0  0
    6.4718    8.2606    0.0000 N   0  0
    6.4611    9.7614    0.0000 C   0  0
    5.1566   10.5034    0.0000 C   0  0
    5.1459   12.0034    0.0000 O   0  0
    5.1766    7.5041    0.0000 C   0  0
    5.1842    6.0041    0.0000 C   0  0
    3.8943    3.7525    0.0000 C   0  0
    2.5964    3.0004    0.0000 C   0  0
    0.0000    1.5000    0.0000 C   0  0
   -1.2990    0.7500    0.0000 C   0  0
   -1.2990   -0.7500    0.0000 N   0  0
    0.0000   -1.5000    0.0000 C   0  0
  1  2  1  0
  2  3  1  0
  3  4  1  0
  4  5  2  0
  5  6  1  0
  6  7  2  0
  7  8  1  0
  8  9  1  0
  9 10  2  0
 10 11  1  0
 11 12  2  0
 12 13  1  0
 13 14  1  0
 13 15  2  0
 15  9  1  0
 15 16  1  0
 16  7  1  0
 16 17  2  0
  5 18  1  0
 18 19  2  0
 19 20  1  0
 20 21  2  0
 21 22  1  0
 22 23  2  0
 23 24  1  0
 24 25  2  0
 24 26  1  0
 26 27  1  0
 27 28  1  0
 28 29  1  0
 29 30  1  0
 30 31  1  0
 31 32  1  0
 29 33  1  0
 33 34  1  0
 34 26  1  0
 23 35  1  0
 35 36  2  0
 36 20  1  0
 19 37  1  0
 37 38  2  0
 38 39  1  0
 39 40  2  0
 40 18  1  0
 40  3  1  0
M  END
> <assay_chembl_id>
CHEMBL1107901

> <assay_description>
Cytotoxicity against human LNCAP cells

> <document_journal>
Bioorg Med Chem Lett

> <molecule_chembl_id>
CHEMBL1088745

> <standard_value>
4

> <IC50_uM>
0.004

> <Activity>
Yes

> <Canonical_Smiles>
CCn1cc(/C=C2\Oc3cccc(O)c3C2=O)c2c(-c3ccc(C(=O)N4CCN(CCO)CC4)cc3)ccnc21

$$$$

  SciTegic03142313312D

 33 37  0  0  0  0            999 V2000
    5.1799   -7.5093    0.0000 C   0  0
    5.1854   -6.0093    0.0000 N   0  0
    6.4874   -5.2644    0.0000 C   0  0
    3.8888   -5.2533    0.0000 C   0  0
    2.5868   -5.9982    0.0000 O   0  0
    3.8943   -3.7525    0.0000 C   0  0
    5.1945   -3.0045    0.0000 C   0  0
    5.1969   -1.5045    0.0000 C   0  0
    3.8991   -0.7525    0.0000 C   0  0
    2.5987   -1.5004    0.0000 C   0  0
    1.2990   -0.7500    0.0000 C   0  0
    1.2990    0.7500    0.0000 C   0  0
    0.0000    1.5000    0.0000 C   0  0
   -1.2990    0.7500    0.0000 N   0  0
   -1.2990   -0.7500    0.0000 C   0  0
    0.0000   -1.5000    0.0000 C   0  0
   -0.3114   -2.9665    0.0000 C   0  0
    0.6890   -4.0818    0.0000 C   0  0
    0.2235   -5.5086    0.0000 C   0  0
   -1.1979   -5.9466    0.0000 O   0  0
   -1.2025   -7.4458    0.0000 C   0  0
   -2.3205   -8.4459    0.0000 C   0  0
   -2.0135   -9.9141    0.0000 C   0  0
   -0.5884  -10.3823    0.0000 C   0  0
    0.5296   -9.3823    0.0000 C   0  0
    1.9546   -9.8505    0.0000 O   0  0
    0.2225   -7.9141    0.0000 C   0  0
    1.1079   -6.7042    0.0000 C   0  0
    2.6079   -6.7004    0.0000 O   0  0
   -1.8032   -3.1233    0.0000 C   0  0
   -2.4133   -1.7530    0.0000 N   0  0
   -3.8805   -1.4410    0.0000 C   0  0
    2.5965   -3.0004    0.0000 C   0  0
  1  2  1  0
  2  3  1  0
  2  4  1  0
  4  5  2  0
  4  6  1  0
  6  7  2  0
  7  8  1  0
  8  9  2  0
  9 10  1  0
 10 11  1  0
 11 12  2  0
 12 13  1  0
 13 14  2  0
 14 15  1  0
 15 16  2  0
 16 11  1  0
 16 17  1  0
 17 18  1  0
 18 19  2  0
 19 20  1  0
 20 21  1  0
 21 22  2  0
 22 23  1  0
 23 24  2  0
 24 25  1  0
 25 26  1  0
 25 27  2  0
 27 21  1  0
 27 28  1  0
 28 19  1  0
 28 29  2  0
 17 30  2  0
 30 31  1  0
 31 15  1  0
 31 32  1  0
 10 33  2  0
 33  6  1  0
M  END
> <assay_chembl_id>
CHEMBL1107901

> <assay_description>
Cytotoxicity against human LNCAP cells

> <document_journal>
Bioorg Med Chem Lett

> <molecule_chembl_id>
CHEMBL1088746

> <standard_value>
600

> <IC50_uM>
0.6

> <Activity>
Yes

> <Canonical_Smiles>
CN(C)C(=O)c1cccc(-c2ccnc3c2c(/C=C2\Oc4cccc(O)c4C2=O)cn3C)c1

$$$$

  SciTegic03142313312D

 31 35  0  0  0  0            999 V2000
   -0.6923   -4.0811    0.0000 C   0  0
    0.3114   -2.9665    0.0000 N   0  0
    1.8032   -3.1233    0.0000 C   0  0
    2.4133   -1.7530    0.0000 C   0  0
    3.8794   -1.4442    0.0000 C   0  0
    4.8823   -2.5608    0.0000 C   0  0
    4.5510   -4.0107    0.0000 O   0  0
    5.8470   -4.7643    0.0000 C   0  0
    6.1541   -6.2326    0.0000 C   0  0
    7.5791   -6.7008    0.0000 C   0  0
    8.6971   -5.7008    0.0000 C   0  0
    8.3901   -4.2325    0.0000 C   0  0
    9.5081   -3.2325    0.0000 O   0  0
    6.9650   -3.7643    0.0000 C   0  0
    6.3600   -2.3926    0.0000 C   0  0
    7.1067   -1.0917    0.0000 O   0  0
    1.2990   -0.7500    0.0000 C   0  0
    1.2990    0.7500    0.0000 C   0  0
    2.5987    1.5004    0.0000 N   0  0
    3.8991    0.7525    0.0000 C   0  0
    5.1969    1.5046    0.0000 C   0  0
    5.1945    3.0046    0.0000 C   0  0
    6.4915    3.7597    0.0000 C   0  0
    7.7930    3.0141    0.0000 N   0  0
    6.4870    5.2597    0.0000 O   0  0
    3.8943    3.7525    0.0000 C   0  0
    2.5964    3.0004    0.0000 C   0  0
    0.0000    1.5000    0.0000 C   0  0
   -1.2990    0.7500    0.0000 C   0  0
   -1.2990   -0.7500    0.0000 N   0  0
    0.0000   -1.5000    0.0000 C   0  0
  1  2  1  0
  2  3  1  0
  3  4  2  0
  4  5  1  0
  5  6  2  0
  6  7  1  0
  7  8  1  0
  8  9  2  0
  9 10  1  0
 10 11  2  0
 11 12  1  0
 12 13  1  0
 12 14  2  0
 14  8  1  0
 14 15  1  0
 15  6  1  0
 15 16  2  0
  4 17  1  0
 17 18  2  0
 18 19  1  0
 19 20  1  0
 20 21  1  0
 21 22  1  0
 22 23  1  0
 23 24  1  0
 23 25  2  0
 22 26  1  0
 26 27  1  0
 27 19  1  0
 18 28  1  0
 28 29  2  0
 29 30  1  0
 30 31  2  0
 31 17  1  0
 31  2  1  0
M  END
> <assay_chembl_id>
CHEMBL1107901

> <assay_description>
Cytotoxicity against human LNCAP cells

> <document_journal>
Bioorg Med Chem Lett

> <molecule_chembl_id>
CHEMBL1094015

> <standard_value>
10

> <IC50_uM>
0.01

> <Activity>
Yes

> <Canonical_Smiles>
Cn1cc(/C=C2\Oc3cccc(O)c3C2=O)c2c(N3CCC(C(N)=O)CC3)ccnc21

$$$$

  SciTegic03142313312D

 30 34  0  0  0  0            999 V2000
   -0.6923   -4.0811    0.0000 C   0  0
    0.3114   -2.9665    0.0000 N   0  0
    1.8032   -3.1233    0.0000 C   0  0
    2.4133   -1.7530    0.0000 C   0  0
    3.8794   -1.4442    0.0000 C   0  0
    4.8823   -2.5608    0.0000 C   0  0
    4.5510   -4.0107    0.0000 O   0  0
    5.8470   -4.7643    0.0000 C   0  0
    6.1541   -6.2326    0.0000 C   0  0
    7.5791   -6.7008    0.0000 C   0  0
    8.6971   -5.7008    0.0000 C   0  0
    8.3901   -4.2325    0.0000 C   0  0
    9.5081   -3.2325    0.0000 O   0  0
    6.9650   -3.7643    0.0000 C   0  0
    6.3600   -2.3926    0.0000 C   0  0
    7.1067   -1.0917    0.0000 O   0  0
    1.2990   -0.7500    0.0000 C   0  0
    1.2990    0.7500    0.0000 C   0  0
    2.5987    1.5004    0.0000 N   0  0
    3.8991    0.7525    0.0000 C   0  0
    5.1969    1.5046    0.0000 C   0  0
    5.1945    3.0046    0.0000 C   0  0
    6.4915    3.7597    0.0000 C   0  0
    6.4870    5.2597    0.0000 N   0  0
    3.8943    3.7525    0.0000 C   0  0
    2.5964    3.0004    0.0000 C   0  0
    0.0000    1.5000    0.0000 C   0  0
   -1.2990    0.7500    0.0000 C   0  0
   -1.2990   -0.7500    0.0000 N   0  0
    0.0000   -1.5000    0.0000 C   0  0
  1  2  1  0
  2  3  1  0
  3  4  2  0
  4  5  1  0
  5  6  2  0
  6  7  1  0
  7  8  1  0
  8  9  2  0
  9 10  1  0
 10 11  2  0
 11 12  1  0
 12 13  1  0
 12 14  2  0
 14  8  1  0
 14 15  1  0
 15  6  1  0
 15 16  2  0
  4 17  1  0
 17 18  2  0
 18 19  1  0
 19 20  1  0
 20 21  1  0
 21 22  1  0
 22 23  1  0
 23 24  1  0
 22 25  1  0
 25 26  1  0
 26 19  1  0
 18 27  1  0
 27 28  2  0
 28 29  1  0
 29 30  2  0
 30 17  1  0
 30  2  1  0
M  END
> <assay_chembl_id>
CHEMBL1107901

> <assay_description>
Cytotoxicity against human LNCAP cells

> <document_journal>
Bioorg Med Chem Lett

> <molecule_chembl_id>
CHEMBL1094016

> <standard_value>
75

> <IC50_uM>
0.075

> <Activity>
Yes

> <Canonical_Smiles>
Cn1cc(/C=C2\Oc3cccc(O)c3C2=O)c2c(N3CCC(CN)CC3)ccnc21

$$$$

  SciTegic03142313312D

 29 33  0  0  0  0            999 V2000
   -0.6923   -4.0811    0.0000 C   0  0
    0.3114   -2.9665    0.0000 N   0  0
    1.8032   -3.1233    0.0000 C   0  0
    2.4133   -1.7530    0.0000 C   0  0
    3.8794   -1.4442    0.0000 C   0  0
    4.8823   -2.5608    0.0000 C   0  0
    4.5510   -4.0107    0.0000 O   0  0
    5.8470   -4.7643    0.0000 C   0  0
    6.1541   -6.2326    0.0000 C   0  0
    7.5791   -6.7008    0.0000 C   0  0
    8.6971   -5.7008    0.0000 C   0  0
    8.3901   -4.2325    0.0000 C   0  0
    9.5081   -3.2325    0.0000 O   0  0
    6.9650   -3.7643    0.0000 C   0  0
    6.3600   -2.3926    0.0000 C   0  0
    7.1067   -1.0917    0.0000 O   0  0
    1.2990   -0.7500    0.0000 C   0  0
    1.2990    0.7500    0.0000 C   0  0
    2.5987    1.5004    0.0000 N   0  0
    3.8991    0.7525    0.0000 C   0  0
    5.1969    1.5046    0.0000 C   0  0
    5.1945    3.0046    0.0000 C   0  0
    6.4923    3.7567    0.0000 N   0  0
    3.8943    3.7525    0.0000 C   0  0
    2.5964    3.0004    0.0000 C   0  0
    0.0000    1.5000    0.0000 C   0  0
   -1.2990    0.7500    0.0000 C   0  0
   -1.2990   -0.7500    0.0000 N   0  0
    0.0000   -1.5000    0.0000 C   0  0
  1  2  1  0
  2  3  1  0
  3  4  2  0
  4  5  1  0
  5  6  2  0
  6  7  1  0
  7  8  1  0
  8  9  2  0
  9 10  1  0
 10 11  2  0
 11 12  1  0
 12 13  1  0
 12 14  2  0
 14  8  1  0
 14 15  1  0
 15  6  1  0
 15 16  2  0
  4 17  1  0
 17 18  2  0
 18 19  1  0
 19 20  1  0
 20 21  1  0
 21 22  1  0
 22 23  1  0
 22 24  1  0
 24 25  1  0
 25 19  1  0
 18 26  1  0
 26 27  2  0
 27 28  1  0
 28 29  2  0
 29 17  1  0
 29  2  1  0
M  END
> <assay_chembl_id>
CHEMBL1107901

> <assay_description>
Cytotoxicity against human LNCAP cells

> <document_journal>
Bioorg Med Chem Lett

> <molecule_chembl_id>
CHEMBL1092474

> <standard_value>
240

> <IC50_uM>
0.24

> <Activity>
Yes

> <Canonical_Smiles>
Cn1cc(/C=C2\Oc3cccc(O)c3C2=O)c2c(N3CCC(N)CC3)ccnc21

$$$$

  SciTegic03142313312D

 28 32  0  0  0  0            999 V2000
   -0.6923   -4.0811    0.0000 C   0  0
    0.3114   -2.9665    0.0000 N   0  0
    1.8032   -3.1233    0.0000 C   0  0
    2.4133   -1.7530    0.0000 C   0  0
    3.8794   -1.4442    0.0000 C   0  0
    4.8823   -2.5608    0.0000 C   0  0
    4.5510   -4.0107    0.0000 O   0  0
    5.8470   -4.7643    0.0000 C   0  0
    6.1541   -6.2326    0.0000 C   0  0
    7.5791   -6.7008    0.0000 C   0  0
    8.6971   -5.7008    0.0000 C   0  0
    8.3901   -4.2325    0.0000 C   0  0
    9.5081   -3.2325    0.0000 O   0  0
    6.9650   -3.7643    0.0000 C   0  0
    6.3600   -2.3926    0.0000 C   0  0
    7.1067   -1.0917    0.0000 O   0  0
    1.2990   -0.7500    0.0000 C   0  0
    1.2990    0.7500    0.0000 C   0  0
    2.5987    1.5004    0.0000 N   0  0
    3.8991    0.7525    0.0000 C   0  0
    5.1969    1.5046    0.0000 C   0  0
    5.1945    3.0046    0.0000 O   0  0
    3.8943    3.7525    0.0000 C   0  0
    2.5964    3.0004    0.0000 C   0  0
    0.0000    1.5000    0.0000 C   0  0
   -1.2990    0.7500    0.0000 C   0  0
   -1.2990   -0.7500    0.0000 N   0  0
    0.0000   -1.5000    0.0000 C   0  0
  1  2  1  0
  2  3  1  0
  3  4  2  0
  4  5  1  0
  5  6  2  0
  6  7  1  0
  7  8  1  0
  8  9  2  0
  9 10  1  0
 10 11  2  0
 11 12  1  0
 12 13  1  0
 12 14  2  0
 14  8  1  0
 14 15  1  0
 15  6  1  0
 15 16  2  0
  4 17  1  0
 17 18  2  0
 18 19  1  0
 19 20  1  0
 20 21  1  0
 21 22  1  0
 22 23  1  0
 23 24  1  0
 24 19  1  0
 18 25  1  0
 25 26  2  0
 26 27  1  0
 27 28  2  0
 28 17  1  0
 28  2  1  0
M  END
> <assay_chembl_id>
CHEMBL1107901

> <assay_description>
Cytotoxicity against human LNCAP cells

> <document_journal>
Bioorg Med Chem Lett

> <molecule_chembl_id>
CHEMBL1092768

> <standard_value>
5

> <IC50_uM>
0.005

> <Activity>
Yes

> <Canonical_Smiles>
Cn1cc(/C=C2\Oc3cccc(O)c3C2=O)c2c(N3CCOCC3)ccnc21

$$$$

  SciTegic03142313312D

 30 35  0  0  0  0            999 V2000
   -0.6923   -4.0811    0.0000 C   0  0
    0.3114   -2.9665    0.0000 N   0  0
    1.8032   -3.1233    0.0000 C   0  0
    2.4133   -1.7530    0.0000 C   0  0
    3.8794   -1.4442    0.0000 C   0  0
    4.8823   -2.5608    0.0000 C   0  0
    4.5510   -4.0107    0.0000 O   0  0
    5.8470   -4.7643    0.0000 C   0  0
    6.1541   -6.2326    0.0000 C   0  0
    7.5791   -6.7008    0.0000 C   0  0
    8.6971   -5.7008    0.0000 C   0  0
    8.3901   -4.2325    0.0000 C   0  0
    9.5081   -3.2325    0.0000 O   0  0
    6.9650   -3.7643    0.0000 C   0  0
    6.3600   -2.3926    0.0000 C   0  0
    7.1067   -1.0917    0.0000 O   0  0
    1.2990   -0.7500    0.0000 C   0  0
    1.2990    0.7500    0.0000 C   0  0
    2.5987    1.5004    0.0000 N   0  0
    3.7433    1.7022    0.0000 C   0  0
    5.3202    0.8592    0.0000 C   0  0  3  0  0  0
    5.5451   -0.7713    0.0000 C   0  0
    4.8582    0.3820    0.0000 C   0  0
    4.8897    1.8341    0.0000 C   0  0  3  0  0  0
    3.4588    2.6405    0.0000 C   0  0
    6.2422    2.0421    0.0000 O   0  0
    0.0000    1.5000    0.0000 C   0  0
   -1.2990    0.7500    0.0000 C   0  0
   -1.2990   -0.7500    0.0000 N   0  0
    0.0000   -1.5000    0.0000 C   0  0
  1  2  1  0
  2  3  1  0
  3  4  2  0
  4  5  1  0
  5  6  2  0
  6  7  1  0
  7  8  1  0
  8  9  2  0
  9 10  1  0
 10 11  2  0
 11 12  1  0
 12 13  1  0
 12 14  2  0
 14  8  1  0
 14 15  1  0
 15  6  1  0
 15 16  2  0
  4 17  1  0
 17 18  2  0
 18 19  1  0
 19 20  1  0
 21 20  1  4
 21 22  1  0
 22 23  1  0
 24 23  1  4
 24 25  1  0
 25 19  1  0
 24 26  1  0
 26 21  1  0
 18 27  1  0
 27 28  2  0
 28 29  1  0
 29 30  2  0
 30 17  1  0
 30  2  1  0
M  END
> <assay_chembl_id>
CHEMBL1107901

> <assay_description>
Cytotoxicity against human LNCAP cells

> <document_journal>
Bioorg Med Chem Lett

> <molecule_chembl_id>
CHEMBL1090381

> <standard_value>
2

> <IC50_uM>
0.002

> <Activity>
Yes

> <Canonical_Smiles>
Cn1cc(/C=C2\Oc3cccc(O)c3C2=O)c2c(N3CC4CCC(C3)O4)ccnc21

$$$$

  SciTegic03142313312D

 30 35  0  0  0  0            999 V2000
   -0.6923   -4.0811    0.0000 C   0  0
    0.3114   -2.9665    0.0000 N   0  0
    1.8032   -3.1233    0.0000 C   0  0
    2.4133   -1.7530    0.0000 C   0  0
    3.8794   -1.4442    0.0000 C   0  0
    4.8823   -2.5608    0.0000 C   0  0
    4.5510   -4.0107    0.0000 O   0  0
    5.8470   -4.7643    0.0000 C   0  0
    6.1541   -6.2326    0.0000 C   0  0
    7.5791   -6.7008    0.0000 C   0  0
    8.6971   -5.7008    0.0000 C   0  0
    8.3901   -4.2325    0.0000 C   0  0
    9.5081   -3.2325    0.0000 O   0  0
    6.9650   -3.7643    0.0000 C   0  0
    6.3600   -2.3926    0.0000 C   0  0
    7.1067   -1.0917    0.0000 O   0  0
    1.2990   -0.7500    0.0000 C   0  0
    1.2990    0.7500    0.0000 C   0  0
    2.5987    1.5004    0.0000 N   0  0
    3.8690    1.6663    0.0000 C   0  0  3  0  0  0
    3.8865    3.1186    0.0000 C   0  0
    3.1887    4.2653    0.0000 C   0  0
    3.4292    2.6371    0.0000 C   0  0  3  0  0  0
    5.0140    1.8093    0.0000 C   0  0
    6.2267    2.0816    0.0000 O   0  0
    5.3076    0.8737    0.0000 C   0  0
    0.0000    1.5000    0.0000 C   0  0
   -1.2990    0.7500    0.0000 C   0  0
   -1.2990   -0.7500    0.0000 N   0  0
    0.0000   -1.5000    0.0000 C   0  0
  1  2  1  0
  2  3  1  0
  3  4  2  0
  4  5  1  0
  5  6  2  0
  6  7  1  0
  7  8  1  0
  8  9  2  0
  9 10  1  0
 10 11  2  0
 11 12  1  0
 12 13  1  0
 12 14  2  0
 14  8  1  0
 14 15  1  0
 15  6  1  0
 15 16  2  0
  4 17  1  0
 17 18  2  0
 18 19  1  0
 19 20  1  0
 20 21  1  4
 21 22  1  0
 23 22  1  4
 23 19  1  0
 23 24  1  0
 24 25  1  0
 25 26  1  0
 26 20  1  0
 18 27  1  0
 27 28  2  0
 28 29  1  0
 29 30  2  0
 30 17  1  0
 30  2  1  0
M  END
> <assay_chembl_id>
CHEMBL1107901

> <assay_description>
Cytotoxicity against human LNCAP cells

> <document_journal>
Bioorg Med Chem Lett

> <molecule_chembl_id>
CHEMBL1090382

> <standard_value>
2

> <IC50_uM>
0.002

> <Activity>
Yes

> <Canonical_Smiles>
Cn1cc(/C=C2\Oc3cccc(O)c3C2=O)c2c(N3C4CCC3COC4)ccnc21

$$$$

  SciTegic03142313312D

 29 33  0  0  0  0            999 V2000
    6.4924   -3.7566    0.0000 C   0  0
    5.1945   -3.0045    0.0000 N   0  0
    5.1969   -1.5045    0.0000 C   0  0
    3.8991   -0.7525    0.0000 C   0  0
    2.5987   -1.5004    0.0000 N   0  0
    1.2990   -0.7500    0.0000 C   0  0
    1.2990    0.7500    0.0000 C   0  0
    0.0000    1.5000    0.0000 C   0  0
   -1.2990    0.7500    0.0000 N   0  0
   -1.2990   -0.7500    0.0000 C   0  0
    0.0000   -1.5000    0.0000 C   0  0
   -0.3114   -2.9665    0.0000 C   0  0
    0.6890   -4.0818    0.0000 C   0  0
    0.2235   -5.5086    0.0000 C   0  0
   -1.1979   -5.9466    0.0000 O   0  0
   -1.2025   -7.4458    0.0000 C   0  0
   -2.3205   -8.4459    0.0000 C   0  0
   -2.0135   -9.9141    0.0000 C   0  0
   -0.5884  -10.3823    0.0000 C   0  0
    0.5296   -9.3823    0.0000 C   0  0
    1.9546   -9.8505    0.0000 O   0  0
    0.2225   -7.9141    0.0000 C   0  0
    1.1079   -6.7042    0.0000 C   0  0
    2.6079   -6.7004    0.0000 O   0  0
   -1.8032   -3.1233    0.0000 C   0  0
   -2.4133   -1.7530    0.0000 N   0  0
   -3.8805   -1.4410    0.0000 C   0  0
    2.5965   -3.0004    0.0000 C   0  0
    3.8943   -3.7525    0.0000 C   0  0
  1  2  1  0
  2  3  1  0
  3  4  1  0
  4  5  1  0
  5  6  1  0
  6  7  2  0
  7  8  1  0
  8  9  2  0
  9 10  1  0
 10 11  2  0
 11  6  1  0
 11 12  1  0
 12 13  1  0
 13 14  2  0
 14 15  1  0
 15 16  1  0
 16 17  2  0
 17 18  1  0
 18 19  2  0
 19 20  1  0
 20 21  1  0
 20 22  2  0
 22 16  1  0
 22 23  1  0
 23 14  1  0
 23 24  2  0
 12 25  2  0
 25 26  1  0
 26 10  1  0
 26 27  1  0
  5 28  1  0
 28 29  1  0
 29  2  1  0
M  END
> <assay_chembl_id>
CHEMBL1107901

> <assay_description>
Cytotoxicity against human LNCAP cells

> <document_journal>
Bioorg Med Chem Lett

> <molecule_chembl_id>
CHEMBL1090383

> <standard_value>
3

> <IC50_uM>
0.003

> <Activity>
Yes

> <Canonical_Smiles>
CN1CCN(c2ccnc3c2c(/C=C2\Oc4cccc(O)c4C2=O)cn3C)CC1

$$$$

  SciTegic03142313312D

 30 34  0  0  0  0            999 V2000
    6.4924   -3.7566    0.0000 C   0  0
    5.1945   -3.0045    0.0000 N   0  0
    5.1969   -1.5045    0.0000 C   0  0
    3.8991   -0.7525    0.0000 C   0  0
    2.5987   -1.5004    0.0000 N   0  0
    1.2990   -0.7500    0.0000 C   0  0
    1.2990    0.7500    0.0000 C   0  0
    0.0000    1.5000    0.0000 C   0  0
   -1.2990    0.7500    0.0000 N   0  0
   -1.2990   -0.7500    0.0000 C   0  0
    0.0000   -1.5000    0.0000 C   0  0
   -0.3114   -2.9665    0.0000 C   0  0
    0.6890   -4.0818    0.0000 C   0  0
    0.2235   -5.5086    0.0000 C   0  0
   -1.1979   -5.9466    0.0000 O   0  0
   -1.2025   -7.4458    0.0000 C   0  0
   -2.3205   -8.4459    0.0000 C   0  0
   -2.0135   -9.9141    0.0000 C   0  0
   -3.1315  -10.9141    0.0000 O   0  0
   -0.5884  -10.3823    0.0000 C   0  0
    0.5296   -9.3823    0.0000 C   0  0
    1.9546   -9.8505    0.0000 O   0  0
    0.2225   -7.9141    0.0000 C   0  0
    1.1079   -6.7042    0.0000 C   0  0
    2.6079   -6.7004    0.0000 O   0  0
   -1.8032   -3.1233    0.0000 C   0  0
   -2.4133   -1.7530    0.0000 N   0  0
   -3.8805   -1.4410    0.0000 C   0  0
    2.5965   -3.0004    0.0000 C   0  0
    3.8943   -3.7525    0.0000 C   0  0
  1  2  1  0
  2  3  1  0
  3  4  1  0
  4  5  1  0
  5  6  1  0
  6  7  2  0
  7  8  1  0
  8  9  2  0
  9 10  1  0
 10 11  2  0
 11  6  1  0
 11 12  1  0
 12 13  1  0
 13 14  2  0
 14 15  1  0
 15 16  1  0
 16 17  2  0
 17 18  1  0
 18 19  1  0
 18 20  2  0
 20 21  1  0
 21 22  1  0
 21 23  2  0
 23 16  1  0
 23 24  1  0
 24 14  1  0
 24 25  2  0
 12 26  2  0
 26 27  1  0
 27 10  1  0
 27 28  1  0
  5 29  1  0
 29 30  1  0
 30  2  1  0
M  END
> <assay_chembl_id>
CHEMBL1107901

> <assay_description>
Cytotoxicity against human LNCAP cells

> <document_journal>
Bioorg Med Chem Lett

> <molecule_chembl_id>
CHEMBL1094017

> <standard_value>
110

> <IC50_uM>
0.11

> <Activity>
Yes

> <Canonical_Smiles>
CN1CCN(c2ccnc3c2c(/C=C2\Oc4cc(O)cc(O)c4C2=O)cn3C)CC1

$$$$

  SciTegic03142313312D

 25 27  0  0  0  0            999 V2000
   -0.2237   -5.5078    0.0000 C   0  0
   -0.6890   -4.0818    0.0000 C   0  0
    0.3114   -2.9665    0.0000 N   0  0
    1.8032   -3.1233    0.0000 C   0  0
    2.5536   -4.4230    0.0000 C   0  0
    4.0417   -4.4398    0.0000 N   0  0
    4.4674   -5.8782    0.0000 O   0  0
    3.2310   -6.7275    0.0000 N   0  0
    2.0412   -5.8141    0.0000 C   0  0
    0.6003   -6.2309    0.0000 N   0  0
    2.4133   -1.7530    0.0000 N   0  0
    1.2990   -0.7500    0.0000 C   0  0
    1.2990    0.7500    0.0000 C   0  0
    2.5988    1.5004    0.0000 C   0  0
    3.8985    2.2508    0.0000 C   0  0
    5.1983    3.0013    0.0000 C   0  0
    5.1978    4.5013    0.0000 C   0  0
    6.4970    3.7519    0.0000 C   0  0
    6.4978    2.2521    0.0000 O   0  0
    0.0000    1.5000    0.0000 N   0  0
   -1.2990    0.7500    0.0000 C   0  0
   -2.6003    1.4977    0.0000 C   0  0
   -3.8983    0.7459    0.0000 N   0  0
   -1.2990   -0.7500    0.0000 C   0  0
    0.0000   -1.5000    0.0000 C   0  0
  1  2  1  0
  2  3  1  0
  3  4  1  0
  4  5  1  0
  5  6  2  0
  6  7  1  0
  7  8  1  0
  8  9  2  0
  9  5  1  0
  9 10  1  0
  4 11  2  0
 11 12  1  0
 12 13  2  0
 13 14  1  0
 14 15  3  0
 15 16  1  0
 16 17  1  0
 16 18  1  0
 16 19  1  0
 13 20  1  0
 20 21  2  0
 21 22  1  0
 22 23  1  0
 21 24  1  0
 24 25  2  0
 25 12  1  0
 25  3  1  0
M  END
> <assay_chembl_id>
CHEMBL1109957

> <assay_description>
Antiproliferative activity against human LNCAP cells

> <document_journal>
Bioorg Med Chem Lett

> <molecule_chembl_id>
CHEMBL1098241

> <standard_value>
296

> <IC50_uM>
0.296

> <Activity>
Yes

> <Canonical_Smiles>
CCn1c(-c2nonc2N)nc2c(C#CC(C)(C)O)nc(CN)cc21

$$$$

  SciTegic03142313312D

 26 28  0  0  0  0            999 V2000
   -0.2237   -5.5078    0.0000 C   0  0
   -0.6890   -4.0818    0.0000 C   0  0
    0.3114   -2.9665    0.0000 N   0  0
    1.8032   -3.1233    0.0000 C   0  0
    2.5536   -4.4230    0.0000 C   0  0
    4.0417   -4.4398    0.0000 N   0  0
    4.4674   -5.8782    0.0000 O   0  0
    3.2310   -6.7275    0.0000 N   0  0
    2.0412   -5.8141    0.0000 C   0  0
    0.6003   -6.2309    0.0000 N   0  0
    2.4133   -1.7530    0.0000 N   0  0
    1.2990   -0.7500    0.0000 C   0  0
    1.2990    0.7500    0.0000 C   0  0
    2.5988    1.5004    0.0000 C   0  0
    3.8985    2.2508    0.0000 C   0  0
    5.1983    3.0013    0.0000 C   0  0
    5.1978    4.5013    0.0000 C   0  0
    6.4970    3.7519    0.0000 C   0  0
    6.4978    2.2521    0.0000 O   0  0
    0.0000    1.5000    0.0000 N   0  0
   -1.2990    0.7500    0.0000 C   0  0
   -2.6003    1.4977    0.0000 C   0  0
   -3.8990    0.7455    0.0000 N   0  0
   -5.1996    1.4928    0.0000 C   0  0
   -1.2990   -0.7500    0.0000 C   0  0
    0.0000   -1.5000    0.0000 C   0  0
  1  2  1  0
  2  3  1  0
  3  4  1  0
  4  5  1  0
  5  6  2  0
  6  7  1  0
  7  8  1  0
  8  9  2  0
  9  5  1  0
  9 10  1  0
  4 11  2  0
 11 12  1  0
 12 13  2  0
 13 14  1  0
 14 15  3  0
 15 16  1  0
 16 17  1  0
 16 18  1  0
 16 19  1  0
 13 20  1  0
 20 21  2  0
 21 22  1  0
 22 23  1  0
 23 24  1  0
 21 25  1  0
 25 26  2  0
 26 12  1  0
 26  3  1  0
M  END
> <assay_chembl_id>
CHEMBL1109957

> <assay_description>
Antiproliferative activity against human LNCAP cells

> <document_journal>
Bioorg Med Chem Lett

> <molecule_chembl_id>
CHEMBL1098316

> <standard_value>
201

> <IC50_uM>
0.201

> <Activity>
Yes

> <Canonical_Smiles>
CCn1c(-c2nonc2N)nc2c(C#CC(C)(C)O)nc(CNC)cc21

$$$$

  SciTegic03142313312D

 27 29  0  0  0  0            999 V2000
   -0.2237   -5.5078    0.0000 C   0  0
   -0.6890   -4.0818    0.0000 C   0  0
    0.3114   -2.9665    0.0000 N   0  0
    1.8032   -3.1233    0.0000 C   0  0
    2.5536   -4.4230    0.0000 C   0  0
    4.0417   -4.4398    0.0000 N   0  0
    4.4674   -5.8782    0.0000 O   0  0
    3.2310   -6.7275    0.0000 N   0  0
    2.0412   -5.8141    0.0000 C   0  0
    0.6003   -6.2309    0.0000 N   0  0
    2.4133   -1.7530    0.0000 N   0  0
    1.2990   -0.7500    0.0000 C   0  0
    1.2990    0.7500    0.0000 C   0  0
    2.5988    1.5004    0.0000 C   0  0
    3.8985    2.2508    0.0000 C   0  0
    5.1983    3.0013    0.0000 C   0  0
    5.1978    4.5013    0.0000 C   0  0
    6.4970    3.7519    0.0000 C   0  0
    6.4978    2.2521    0.0000 O   0  0
    0.0000    1.5000    0.0000 N   0  0
   -1.2990    0.7500    0.0000 C   0  0
   -2.6003    1.4977    0.0000 C   0  0
   -3.8990    0.7455    0.0000 N   0  0
   -5.1996    1.4928    0.0000 C   0  0
   -3.8964   -0.7545    0.0000 C   0  0
   -1.2990   -0.7500    0.0000 C   0  0
    0.0000   -1.5000    0.0000 C   0  0
  1  2  1  0
  2  3  1  0
  3  4  1  0
  4  5  1  0
  5  6  2  0
  6  7  1  0
  7  8  1  0
  8  9  2  0
  9  5  1  0
  9 10  1  0
  4 11  2  0
 11 12  1  0
 12 13  2  0
 13 14  1  0
 14 15  3  0
 15 16  1  0
 16 17  1  0
 16 18  1  0
 16 19  1  0
 13 20  1  0
 20 21  2  0
 21 22  1  0
 22 23  1  0
 23 24  1  0
 23 25  1  0
 21 26  1  0
 26 27  2  0
 27 12  1  0
 27  3  1  0
M  END
> <assay_chembl_id>
CHEMBL1109957

> <assay_description>
Antiproliferative activity against human LNCAP cells

> <document_journal>
Bioorg Med Chem Lett

> <molecule_chembl_id>
CHEMBL1099290

> <standard_value>
114

> <IC50_uM>
0.114

> <Activity>
Yes

> <Canonical_Smiles>
CCn1c(-c2nonc2N)nc2c(C#CC(C)(C)O)nc(CN(C)C)cc21

$$$$

  SciTegic03142313312D

 29 32  0  0  0  0            999 V2000
   -0.2237   -5.5078    0.0000 C   0  0
   -0.6890   -4.0818    0.0000 C   0  0
    0.3114   -2.9665    0.0000 N   0  0
    1.8032   -3.1233    0.0000 C   0  0
    2.5536   -4.4230    0.0000 C   0  0
    4.0417   -4.4398    0.0000 N   0  0
    4.4674   -5.8782    0.0000 O   0  0
    3.2310   -6.7275    0.0000 N   0  0
    2.0412   -5.8141    0.0000 C   0  0
    0.6003   -6.2309    0.0000 N   0  0
    2.4133   -1.7530    0.0000 N   0  0
    1.2990   -0.7500    0.0000 C   0  0
    1.2990    0.7500    0.0000 C   0  0
    2.5988    1.5004    0.0000 C   0  0
    3.8985    2.2508    0.0000 C   0  0
    5.1983    3.0013    0.0000 C   0  0
    5.1978    4.5013    0.0000 C   0  0
    6.4970    3.7519    0.0000 C   0  0
    6.4978    2.2521    0.0000 O   0  0
    0.0000    1.5000    0.0000 N   0  0
   -1.2990    0.7500    0.0000 C   0  0
   -2.6003    1.4977    0.0000 C   0  0
   -3.8990    0.7455    0.0000 N   0  0
   -5.2526    1.3618    0.0000 C   0  0
   -6.2524    0.2436    0.0000 C   0  0
   -5.4979   -1.0529    0.0000 C   0  0
   -4.0317   -0.7359    0.0000 C   0  0
   -1.2990   -0.7500    0.0000 C   0  0
    0.0000   -1.5000    0.0000 C   0  0
  1  2  1  0
  2  3  1  0
  3  4  1  0
  4  5  1  0
  5  6  2  0
  6  7  1  0
  7  8  1  0
  8  9  2  0
  9  5  1  0
  9 10  1  0
  4 11  2  0
 11 12  1  0
 12 13  2  0
 13 14  1  0
 14 15  3  0
 15 16  1  0
 16 17  1  0
 16 18  1  0
 16 19  1  0
 13 20  1  0
 20 21  2  0
 21 22  1  0
 22 23  1  0
 23 24  1  0
 24 25  1  0
 25 26  1  0
 26 27  1  0
 27 23  1  0
 21 28  1  0
 28 29  2  0
 29 12  1  0
 29  3  1  0
M  END
> <assay_chembl_id>
CHEMBL1109957

> <assay_description>
Antiproliferative activity against human LNCAP cells

> <document_journal>
Bioorg Med Chem Lett

> <molecule_chembl_id>
CHEMBL1096290

> <standard_value>
313

> <IC50_uM>
0.313

> <Activity>
Yes

> <Canonical_Smiles>
CCn1c(-c2nonc2N)nc2c(C#CC(C)(C)O)nc(CN3CCCC3)cc21

$$$$

  SciTegic03142313312D

 27 29  0  0  0  0            999 V2000
   -0.2237   -5.5078    0.0000 C   0  0
   -0.6890   -4.0818    0.0000 C   0  0
    0.3114   -2.9665    0.0000 N   0  0
    1.8032   -3.1233    0.0000 C   0  0
    2.5536   -4.4230    0.0000 C   0  0
    4.0417   -4.4398    0.0000 N   0  0
    4.4674   -5.8782    0.0000 O   0  0
    3.2310   -6.7275    0.0000 N   0  0
    2.0412   -5.8141    0.0000 C   0  0
    0.6003   -6.2309    0.0000 N   0  0
    2.4133   -1.7530    0.0000 N   0  0
    1.2990   -0.7500    0.0000 C   0  0
    1.2990    0.7500    0.0000 C   0  0
    2.5988    1.5004    0.0000 C   0  0
    3.8985    2.2508    0.0000 C   0  0
    5.1983    3.0013    0.0000 C   0  0
    5.1978    4.5013    0.0000 C   0  0
    6.4970    3.7519    0.0000 C   0  0
    6.4978    2.2521    0.0000 O   0  0
    0.0000    1.5000    0.0000 N   0  0
   -1.2990    0.7500    0.0000 C   0  0
   -2.6003    1.4977    0.0000 O   0  0
   -3.8990    0.7455    0.0000 C   0  0
   -5.2003    1.4932    0.0000 C   0  0
   -6.4983    0.7413    0.0000 N   0  0
   -1.2990   -0.7500    0.0000 C   0  0
    0.0000   -1.5000    0.0000 C   0  0
  1  2  1  0
  2  3  1  0
  3  4  1  0
  4  5  1  0
  5  6  2  0
  6  7  1  0
  7  8  1  0
  8  9  2  0
  9  5  1  0
  9 10  1  0
  4 11  2  0
 11 12  1  0
 12 13  2  0
 13 14  1  0
 14 15  3  0
 15 16  1  0
 16 17  1  0
 16 18  1  0
 16 19  1  0
 13 20  1  0
 20 21  2  0
 21 22  1  0
 22 23  1  0
 23 24  1  0
 24 25  1  0
 21 26  1  0
 26 27  2  0
 27 12  1  0
 27  3  1  0
M  END
> <assay_chembl_id>
CHEMBL1109957

> <assay_description>
Antiproliferative activity against human LNCAP cells

> <document_journal>
Bioorg Med Chem Lett

> <molecule_chembl_id>
CHEMBL1096291

> <standard_value>
497

> <IC50_uM>
0.497

> <Activity>
Yes

> <Canonical_Smiles>
CCn1c(-c2nonc2N)nc2c(C#CC(C)(C)O)nc(OCCN)cc21

$$$$

  SciTegic03142313312D

 28 30  0  0  0  0            999 V2000
   -0.2237   -5.5078    0.0000 C   0  0
   -0.6890   -4.0818    0.0000 C   0  0
    0.3114   -2.9665    0.0000 N   0  0
    1.8032   -3.1233    0.0000 C   0  0
    2.5536   -4.4230    0.0000 C   0  0
    4.0417   -4.4398    0.0000 N   0  0
    4.4674   -5.8782    0.0000 O   0  0
    3.2310   -6.7275    0.0000 N   0  0
    2.0412   -5.8141    0.0000 C   0  0
    0.6003   -6.2309    0.0000 N   0  0
    2.4133   -1.7530    0.0000 N   0  0
    1.2990   -0.7500    0.0000 C   0  0
    1.2990    0.7500    0.0000 C   0  0
    2.5988    1.5004    0.0000 C   0  0
    3.8985    2.2508    0.0000 C   0  0
    5.1983    3.0013    0.0000 C   0  0
    5.1978    4.5013    0.0000 C   0  0
    6.4970    3.7519    0.0000 C   0  0
    6.4978    2.2521    0.0000 O   0  0
    0.0000    1.5000    0.0000 N   0  0
   -1.2990    0.7500    0.0000 C   0  0
   -2.6003    1.4977    0.0000 O   0  0
   -3.8990    0.7455    0.0000 C   0  0
   -5.2003    1.4932    0.0000 C   0  0
   -6.4990    0.7409    0.0000 N   0  0
   -7.7996    1.4882    0.0000 C   0  0
   -1.2990   -0.7500    0.0000 C   0  0
    0.0000   -1.5000    0.0000 C   0  0
  1  2  1  0
  2  3  1  0
  3  4  1  0
  4  5  1  0
  5  6  2  0
  6  7  1  0
  7  8  1  0
  8  9  2  0
  9  5  1  0
  9 10  1  0
  4 11  2  0
 11 12  1  0
 12 13  2  0
 13 14  1  0
 14 15  3  0
 15 16  1  0
 16 17  1  0
 16 18  1  0
 16 19  1  0
 13 20  1  0
 20 21  2  0
 21 22  1  0
 22 23  1  0
 23 24  1  0
 24 25  1  0
 25 26  1  0
 21 27  1  0
 27 28  2  0
 28 12  1  0
 28  3  1  0
M  END
> <assay_chembl_id>
CHEMBL1109957

> <assay_description>
Antiproliferative activity against human LNCAP cells

> <document_journal>
Bioorg Med Chem Lett

> <molecule_chembl_id>
CHEMBL1098943

> <standard_value>
896

> <IC50_uM>
0.896

> <Activity>
Yes

> <Canonical_Smiles>
CCn1c(-c2nonc2N)nc2c(C#CC(C)(C)O)nc(OCCNC)cc21

$$$$

  SciTegic03142313312D

 28 30  0  0  1  0            999 V2000
   -0.2237   -5.5078    0.0000 C   0  0
   -0.6890   -4.0818    0.0000 C   0  0
    0.3114   -2.9665    0.0000 N   0  0
    1.8032   -3.1233    0.0000 C   0  0
    2.5536   -4.4230    0.0000 C   0  0
    4.0417   -4.4398    0.0000 N   0  0
    4.4674   -5.8782    0.0000 O   0  0
    3.2310   -6.7275    0.0000 N   0  0
    2.0412   -5.8141    0.0000 C   0  0
    0.6003   -6.2309    0.0000 N   0  0
    2.4133   -1.7530    0.0000 N   0  0
    1.2990   -0.7500    0.0000 C   0  0
    1.2990    0.7500    0.0000 C   0  0
    2.5988    1.5004    0.0000 C   0  0
    3.8985    2.2508    0.0000 C   0  0
    5.1983    3.0013    0.0000 C   0  0
    5.1978    4.5013    0.0000 C   0  0
    6.4970    3.7519    0.0000 C   0  0
    6.4978    2.2521    0.0000 O   0  0
    0.0000    1.5000    0.0000 N   0  0
   -1.2990    0.7500    0.0000 C   0  0
   -2.6003    1.4977    0.0000 O   0  0
   -3.8990    0.7455    0.0000 C   0  0
   -5.2003    1.4932    0.0000 C   0  0  1  0  0  0
   -5.2029    2.9932    0.0000 C   0  0
   -6.4983    0.7413    0.0000 N   0  0
   -1.2990   -0.7500    0.0000 C   0  0
    0.0000   -1.5000    0.0000 C   0  0
  1  2  1  0
  2  3  1  0
  3  4  1  0
  4  5  1  0
  5  6  2  0
  6  7  1  0
  7  8  1  0
  8  9  2  0
  9  5  1  0
  9 10  1  0
  4 11  2  0
 11 12  1  0
 12 13  2  0
 13 14  1  0
 14 15  3  0
 15 16  1  0
 16 17  1  0
 16 18  1  0
 16 19  1  0
 13 20  1  0
 20 21  2  0
 21 22  1  0
 22 23  1  0
 23 24  1  0
 24 25  1  6
 24 26  1  0
 21 27  1  0
 27 28  2  0
 28 12  1  0
 28  3  1  0
M  END
> <assay_chembl_id>
CHEMBL1109957

> <assay_description>
Antiproliferative activity against human LNCAP cells

> <document_journal>
Bioorg Med Chem Lett

> <molecule_chembl_id>
CHEMBL1098944

> <standard_value>
220

> <IC50_uM>
0.22

> <Activity>
Yes

> <Canonical_Smiles>
CCn1c(-c2nonc2N)nc2c(C#CC(C)(C)O)nc(OC[C@@H](C)N)cc21

$$$$

  SciTegic03142313312D

 28 30  0  0  1  0            999 V2000
   -0.2237   -5.5078    0.0000 C   0  0
   -0.6890   -4.0818    0.0000 C   0  0
    0.3114   -2.9665    0.0000 N   0  0
    1.8032   -3.1233    0.0000 C   0  0
    2.5536   -4.4230    0.0000 C   0  0
    4.0417   -4.4398    0.0000 N   0  0
    4.4674   -5.8782    0.0000 O   0  0
    3.2310   -6.7275    0.0000 N   0  0
    2.0412   -5.8141    0.0000 C   0  0
    0.6003   -6.2309    0.0000 N   0  0
    2.4133   -1.7530    0.0000 N   0  0
    1.2990   -0.7500    0.0000 C   0  0
    1.2990    0.7500    0.0000 C   0  0
    2.5988    1.5004    0.0000 C   0  0
    3.8985    2.2508    0.0000 C   0  0
    5.1983    3.0013    0.0000 C   0  0
    5.1978    4.5013    0.0000 C   0  0
    6.4970    3.7519    0.0000 C   0  0
    6.4978    2.2521    0.0000 O   0  0
    0.0000    1.5000    0.0000 N   0  0
   -1.2990    0.7500    0.0000 C   0  0
   -2.6003    1.4977    0.0000 O   0  0
   -3.8990    0.7455    0.0000 C   0  0
   -5.2003    1.4932    0.0000 C   0  0  2  0  0  0
   -5.2029    2.9932    0.0000 C   0  0
   -6.4983    0.7413    0.0000 N   0  0
   -1.2990   -0.7500    0.0000 C   0  0
    0.0000   -1.5000    0.0000 C   0  0
  1  2  1  0
  2  3  1  0
  3  4  1  0
  4  5  1  0
  5  6  2  0
  6  7  1  0
  7  8  1  0
  8  9  2  0
  9  5  1  0
  9 10  1  0
  4 11  2  0
 11 12  1  0
 12 13  2  0
 13 14  1  0
 14 15  3  0
 15 16  1  0
 16 17  1  0
 16 18  1  0
 16 19  1  0
 13 20  1  0
 20 21  2  0
 21 22  1  0
 22 23  1  0
 23 24  1  0
 24 25  1  1
 24 26  1  0
 21 27  1  0
 27 28  2  0
 28 12  1  0
 28  3  1  0
M  END
> <assay_chembl_id>
CHEMBL1109957

> <assay_description>
Antiproliferative activity against human LNCAP cells

> <document_journal>
Bioorg Med Chem Lett

> <molecule_chembl_id>
CHEMBL1099281

> <standard_value>
560

> <IC50_uM>
0.56

> <Activity>
Yes

> <Canonical_Smiles>
CCn1c(-c2nonc2N)nc2c(C#CC(C)(C)O)nc(OC[C@H](C)N)cc21

$$$$

  SciTegic03142313312D

 33 36  0  0  1  0            999 V2000
   -0.2237   -5.5078    0.0000 C   0  0
   -0.6890   -4.0818    0.0000 C   0  0
    0.3114   -2.9665    0.0000 N   0  0
    1.8032   -3.1233    0.0000 C   0  0
    2.5536   -4.4230    0.0000 C   0  0
    4.0417   -4.4398    0.0000 N   0  0
    4.4674   -5.8782    0.0000 O   0  0
    3.2310   -6.7275    0.0000 N   0  0
    2.0412   -5.8141    0.0000 C   0  0
    0.6003   -6.2309    0.0000 N   0  0
    2.4133   -1.7530    0.0000 N   0  0
    1.2990   -0.7500    0.0000 C   0  0
    1.2990    0.7500    0.0000 C   0  0
    2.5988    1.5004    0.0000 C   0  0
    3.8985    2.2508    0.0000 C   0  0
    5.1983    3.0013    0.0000 C   0  0
    5.1978    4.5013    0.0000 C   0  0
    6.4970    3.7519    0.0000 C   0  0
    6.4978    2.2521    0.0000 O   0  0
    0.0000    1.5000    0.0000 N   0  0
   -1.2990    0.7500    0.0000 C   0  0
   -2.6003    1.4977    0.0000 O   0  0
   -3.8990    0.7455    0.0000 C   0  0
   -5.2003    1.4932    0.0000 C   0  0  2  0  0  0
   -5.2029    2.9932    0.0000 N   0  0
   -6.4990    0.7409    0.0000 C   0  0
   -7.8007    1.4864    0.0000 C   0  0
   -9.0971    0.7319    0.0000 C   0  0
   -9.0919   -0.7681    0.0000 C   0  0
   -7.7903   -1.5136    0.0000 C   0  0
   -6.4939   -0.7591    0.0000 C   0  0
   -1.2990   -0.7500    0.0000 C   0  0
    0.0000   -1.5000    0.0000 C   0  0
  1  2  1  0
  2  3  1  0
  3  4  1  0
  4  5  1  0
  5  6  2  0
  6  7  1  0
  7  8  1  0
  8  9  2  0
  9  5  1  0
  9 10  1  0
  4 11  2  0
 11 12  1  0
 12 13  2  0
 13 14  1  0
 14 15  3  0
 15 16  1  0
 16 17  1  0
 16 18  1  0
 16 19  1  0
 13 20  1  0
 20 21  2  0
 21 22  1  0
 22 23  1  0
 23 24  1  0
 24 25  1  1
 24 26  1  0
 26 27  2  0
 27 28  1  0
 28 29  2  0
 29 30  1  0
 30 31  2  0
 31 26  1  0
 21 32  1  0
 32 33  2  0
 33 12  1  0
 33  3  1  0
M  END
> <assay_chembl_id>
CHEMBL1109957

> <assay_description>
Antiproliferative activity against human LNCAP cells

> <document_journal>
Bioorg Med Chem Lett

> <molecule_chembl_id>
CHEMBL1096634

> <standard_value>
124

> <IC50_uM>
0.124

> <Activity>
Yes

> <Canonical_Smiles>
CCn1c(-c2nonc2N)nc2c(C#CC(C)(C)O)nc(OC[C@H](N)c3ccccc3)cc21

$$$$

  SciTegic03142313312D

 33 36  0  0  1  0            999 V2000
   -0.2237   -5.5078    0.0000 C   0  0
   -0.6890   -4.0818    0.0000 C   0  0
    0.3114   -2.9665    0.0000 N   0  0
    1.8032   -3.1233    0.0000 C   0  0
    2.5536   -4.4230    0.0000 C   0  0
    4.0417   -4.4398    0.0000 N   0  0
    4.4674   -5.8782    0.0000 O   0  0
    3.2310   -6.7275    0.0000 N   0  0
    2.0412   -5.8141    0.0000 C   0  0
    0.6003   -6.2309    0.0000 N   0  0
    2.4133   -1.7530    0.0000 N   0  0
    1.2990   -0.7500    0.0000 C   0  0
    1.2990    0.7500    0.0000 C   0  0
    2.5988    1.5004    0.0000 C   0  0
    3.8985    2.2508    0.0000 C   0  0
    5.1983    3.0013    0.0000 C   0  0
    5.1978    4.5013    0.0000 C   0  0
    6.4970    3.7519    0.0000 C   0  0
    6.4978    2.2521    0.0000 O   0  0
    0.0000    1.5000    0.0000 N   0  0
   -1.2990    0.7500    0.0000 C   0  0
   -2.6003    1.4977    0.0000 O   0  0
   -3.8990    0.7455    0.0000 C   0  0
   -5.2003    1.4932    0.0000 C   0  0  1  0  0  0
   -5.2029    2.9932    0.0000 N   0  0
   -6.4990    0.7409    0.0000 C   0  0
   -7.8007    1.4864    0.0000 C   0  0
   -9.0971    0.7319    0.0000 C   0  0
   -9.0919   -0.7681    0.0000 C   0  0
   -7.7903   -1.5136    0.0000 C   0  0
   -6.4939   -0.7591    0.0000 C   0  0
   -1.2990   -0.7500    0.0000 C   0  0
    0.0000   -1.5000    0.0000 C   0  0
  1  2  1  0
  2  3  1  0
  3  4  1  0
  4  5  1  0
  5  6  2  0
  6  7  1  0
  7  8  1  0
  8  9  2  0
  9  5  1  0
  9 10  1  0
  4 11  2  0
 11 12  1  0
 12 13  2  0
 13 14  1  0
 14 15  3  0
 15 16  1  0
 16 17  1  0
 16 18  1  0
 16 19  1  0
 13 20  1  0
 20 21  2  0
 21 22  1  0
 22 23  1  0
 23 24  1  0
 24 25  1  6
 24 26  1  0
 26 27  2  0
 27 28  1  0
 28 29  2  0
 29 30  1  0
 30 31  2  0
 31 26  1  0
 21 32  1  0
 32 33  2  0
 33 12  1  0
 33  3  1  0
M  END
> <assay_chembl_id>
CHEMBL1109957

> <assay_description>
Antiproliferative activity against human LNCAP cells

> <document_journal>
Bioorg Med Chem Lett

> <molecule_chembl_id>
CHEMBL1096626

> <standard_value>
176

> <IC50_uM>
0.176

> <Activity>
Yes

> <Canonical_Smiles>
CCn1c(-c2nonc2N)nc2c(C#CC(C)(C)O)nc(OC[C@@H](N)c3ccccc3)cc21

$$$$

  SciTegic03142313312D

 34 37  0  0  1  0            999 V2000
   -0.2237   -5.5078    0.0000 C   0  0
   -0.6890   -4.0818    0.0000 C   0  0
    0.3114   -2.9665    0.0000 N   0  0
    1.8032   -3.1233    0.0000 C   0  0
    2.5536   -4.4230    0.0000 C   0  0
    4.0417   -4.4398    0.0000 N   0  0
    4.4674   -5.8782    0.0000 O   0  0
    3.2310   -6.7275    0.0000 N   0  0
    2.0412   -5.8141    0.0000 C   0  0
    0.6003   -6.2309    0.0000 N   0  0
    2.4133   -1.7530    0.0000 N   0  0
    1.2990   -0.7500    0.0000 C   0  0
    1.2990    0.7500    0.0000 C   0  0
    2.5988    1.5004    0.0000 C   0  0
    3.8985    2.2508    0.0000 C   0  0
    5.1983    3.0013    0.0000 C   0  0
    5.1978    4.5013    0.0000 C   0  0
    6.4970    3.7519    0.0000 C   0  0
    6.4978    2.2521    0.0000 O   0  0
    0.0000    1.5000    0.0000 N   0  0
   -1.2990    0.7500    0.0000 C   0  0
   -2.6003    1.4977    0.0000 O   0  0
   -3.8990    0.7455    0.0000 C   0  0
   -5.2003    1.4932    0.0000 C   0  0  2  0  0  0
   -5.2029    2.9932    0.0000 N   0  0
   -6.4990    0.7409    0.0000 C   0  0
   -7.8003    1.4887    0.0000 C   0  0
   -9.0994    0.7387    0.0000 C   0  0
  -10.3984    1.4886    0.0000 C   0  0
  -10.3985    2.9886    0.0000 C   0  0
   -9.0995    3.7387    0.0000 C   0  0
   -7.8004    2.9887    0.0000 C   0  0
   -1.2990   -0.7500    0.0000 C   0  0
    0.0000   -1.5000    0.0000 C   0  0
  1  2  1  0
  2  3  1  0
  3  4  1  0
  4  5  1  0
  5  6  2  0
  6  7  1  0
  7  8  1  0
  8  9  2  0
  9  5  1  0
  9 10  1  0
  4 11  2  0
 11 12  1  0
 12 13  2  0
 13 14  1  0
 14 15  3  0
 15 16  1  0
 16 17  1  0
 16 18  1  0
 16 19  1  0
 13 20  1  0
 20 21  2  0
 21 22  1  0
 22 23  1  0
 23 24  1  0
 24 25  1  1
 24 26  1  0
 26 27  1  0
 27 28  2  0
 28 29  1  0
 29 30  2  0
 30 31  1  0
 31 32  2  0
 32 27  1  0
 21 33  1  0
 33 34  2  0
 34 12  1  0
 34  3  1  0
M  END
> <assay_chembl_id>
CHEMBL1109957

> <assay_description>
Antiproliferative activity against human LNCAP cells

> <document_journal>
Bioorg Med Chem Lett

> <molecule_chembl_id>
CHEMBL1098938

> <standard_value>
20

> <IC50_uM>
0.02

> <Activity>
Yes

> <Canonical_Smiles>
CCn1c(-c2nonc2N)nc2c(C#CC(C)(C)O)nc(OC[C@H](N)Cc3ccccc3)cc21

$$$$

  SciTegic03142313312D

 34 37  0  0  1  0            999 V2000
   -0.2237   -5.5078    0.0000 C   0  0
   -0.6890   -4.0818    0.0000 C   0  0
    0.3114   -2.9665    0.0000 N   0  0
    1.8032   -3.1233    0.0000 C   0  0
    2.5536   -4.4230    0.0000 C   0  0
    4.0417   -4.4398    0.0000 N   0  0
    4.4674   -5.8782    0.0000 O   0  0
    3.2310   -6.7275    0.0000 N   0  0
    2.0412   -5.8141    0.0000 C   0  0
    0.6003   -6.2309    0.0000 N   0  0
    2.4133   -1.7530    0.0000 N   0  0
    1.2990   -0.7500    0.0000 C   0  0
    1.2990    0.7500    0.0000 C   0  0
    2.5988    1.5004    0.0000 C   0  0
    3.8985    2.2508    0.0000 C   0  0
    5.1983    3.0013    0.0000 C   0  0
    5.1978    4.5013    0.0000 C   0  0
    6.4970    3.7519    0.0000 C   0  0
    6.4978    2.2521    0.0000 O   0  0
    0.0000    1.5000    0.0000 N   0  0
   -1.2990    0.7500    0.0000 C   0  0
   -2.6003    1.4977    0.0000 O   0  0
   -3.8990    0.7455    0.0000 C   0  0
   -5.2003    1.4932    0.0000 C   0  0  1  0  0  0
   -5.2029    2.9932    0.0000 N   0  0
   -6.4990    0.7409    0.0000 C   0  0
   -7.8003    1.4887    0.0000 C   0  0
   -9.0994    0.7387    0.0000 C   0  0
  -10.3984    1.4886    0.0000 C   0  0
  -10.3985    2.9886    0.0000 C   0  0
   -9.0995    3.7387    0.0000 C   0  0
   -7.8004    2.9887    0.0000 C   0  0
   -1.2990   -0.7500    0.0000 C   0  0
    0.0000   -1.5000    0.0000 C   0  0
  1  2  1  0
  2  3  1  0
  3  4  1  0
  4  5  1  0
  5  6  2  0
  6  7  1  0
  7  8  1  0
  8  9  2  0
  9  5  1  0
  9 10  1  0
  4 11  2  0
 11 12  1  0
 12 13  2  0
 13 14  1  0
 14 15  3  0
 15 16  1  0
 16 17  1  0
 16 18  1  0
 16 19  1  0
 13 20  1  0
 20 21  2  0
 21 22  1  0
 22 23  1  0
 23 24  1  0
 24 25  1  6
 24 26  1  0
 26 27  1  0
 27 28  2  0
 28 29  1  0
 29 30  2  0
 30 31  1  0
 31 32  2  0
 32 27  1  0
 21 33  1  0
 33 34  2  0
 34 12  1  0
 34  3  1  0
M  END
> <assay_chembl_id>
CHEMBL1109957

> <assay_description>
Antiproliferative activity against human LNCAP cells

> <document_journal>
Bioorg Med Chem Lett

> <molecule_chembl_id>
CHEMBL1098939

> <standard_value>
101

> <IC50_uM>
0.101

> <Activity>
Yes

> <Canonical_Smiles>
CCn1c(-c2nonc2N)nc2c(C#CC(C)(C)O)nc(OC[C@@H](N)Cc3ccccc3)cc21

$$$$

  SciTegic03142313312D

 33 36  0  0  1  0            999 V2000
   -0.2237   -5.5078    0.0000 C   0  0
   -0.6890   -4.0818    0.0000 C   0  0
    0.3114   -2.9665    0.0000 N   0  0
    1.8032   -3.1233    0.0000 C   0  0
    2.5536   -4.4230    0.0000 C   0  0
    4.0417   -4.4398    0.0000 N   0  0
    4.4674   -5.8782    0.0000 O   0  0
    3.2310   -6.7275    0.0000 N   0  0
    2.0412   -5.8141    0.0000 C   0  0
    0.6003   -6.2309    0.0000 N   0  0
    2.4133   -1.7530    0.0000 N   0  0
    1.2990   -0.7500    0.0000 C   0  0
    1.2990    0.7500    0.0000 C   0  0
    2.5988    1.5004    0.0000 C   0  0
    3.8985    2.2508    0.0000 C   0  0
    5.1983    3.0013    0.0000 C   0  0
    5.1978    4.5013    0.0000 C   0  0
    6.4970    3.7519    0.0000 C   0  0
    6.4978    2.2521    0.0000 O   0  0
    0.0000    1.5000    0.0000 N   0  0
   -1.2990    0.7500    0.0000 C   0  0
   -2.6003    1.4977    0.0000 O   0  0
   -3.8990    0.7455    0.0000 C   0  0  1  0  0  0
   -3.8933   -0.7554    0.0000 C   0  0
   -2.5919   -1.5012    0.0000 N   0  0
   -5.2003    1.4932    0.0000 C   0  0
   -6.4994    0.7432    0.0000 C   0  0
   -7.7985    1.4932    0.0000 C   0  0
   -7.7985    2.9932    0.0000 C   0  0
   -6.4995    3.7432    0.0000 C   0  0
   -5.2004    2.9933    0.0000 C   0  0
   -1.2990   -0.7500    0.0000 C   0  0
    0.0000   -1.5000    0.0000 C   0  0
  1  2  1  0
  2  3  1  0
  3  4  1  0
  4  5  1  0
  5  6  2  0
  6  7  1  0
  7  8  1  0
  8  9  2  0
  9  5  1  0
  9 10  1  0
  4 11  2  0
 11 12  1  0
 12 13  2  0
 13 14  1  0
 14 15  3  0
 15 16  1  0
 16 17  1  0
 16 18  1  0
 16 19  1  0
 13 20  1  0
 20 21  2  0
 21 22  1  0
 23 22  1  1
 23 24  1  0
 24 25  1  0
 23 26  1  0
 26 27  2  0
 27 28  1  0
 28 29  2  0
 29 30  1  0
 30 31  2  0
 31 26  1  0
 21 32  1  0
 32 33  2  0
 33 12  1  0
 33  3  1  0
M  END
> <assay_chembl_id>
CHEMBL1109957

> <assay_description>
Antiproliferative activity against human LNCAP cells

> <document_journal>
Bioorg Med Chem Lett

> <molecule_chembl_id>
CHEMBL1099276

> <standard_value>
27

> <IC50_uM>
0.027

> <Activity>
Yes

> <Canonical_Smiles>
CCn1c(-c2nonc2N)nc2c(C#CC(C)(C)O)nc(O[C@@H](CN)c3ccccc3)cc21

$$$$

  SciTegic03142313312D

 33 36  0  0  1  0            999 V2000
   -0.2237   -5.5078    0.0000 C   0  0
   -0.6890   -4.0818    0.0000 C   0  0
    0.3114   -2.9665    0.0000 N   0  0
    1.8032   -3.1233    0.0000 C   0  0
    2.5536   -4.4230    0.0000 C   0  0
    4.0417   -4.4398    0.0000 N   0  0
    4.4674   -5.8782    0.0000 O   0  0
    3.2310   -6.7275    0.0000 N   0  0
    2.0412   -5.8141    0.0000 C   0  0
    0.6003   -6.2309    0.0000 N   0  0
    2.4133   -1.7530    0.0000 N   0  0
    1.2990   -0.7500    0.0000 C   0  0
    1.2990    0.7500    0.0000 C   0  0
    2.5988    1.5004    0.0000 C   0  0
    3.8985    2.2508    0.0000 C   0  0
    5.1983    3.0013    0.0000 C   0  0
    5.1978    4.5013    0.0000 C   0  0
    6.4970    3.7519    0.0000 C   0  0
    6.4978    2.2521    0.0000 O   0  0
    0.0000    1.5000    0.0000 N   0  0
   -1.2990    0.7500    0.0000 C   0  0
   -2.6003    1.4977    0.0000 O   0  0
   -3.8990    0.7455    0.0000 C   0  0  2  0  0  0
   -3.8933   -0.7554    0.0000 C   0  0
   -2.5919   -1.5012    0.0000 N   0  0
   -5.2003    1.4932    0.0000 C   0  0
   -6.4994    0.7432    0.0000 C   0  0
   -7.7985    1.4932    0.0000 C   0  0
   -7.7985    2.9932    0.0000 C   0  0
   -6.4995    3.7432    0.0000 C   0  0
   -5.2004    2.9933    0.0000 C   0  0
   -1.2990   -0.7500    0.0000 C   0  0
    0.0000   -1.5000    0.0000 C   0  0
  1  2  1  0
  2  3  1  0
  3  4  1  0
  4  5  1  0
  5  6  2  0
  6  7  1  0
  7  8  1  0
  8  9  2  0
  9  5  1  0
  9 10  1  0
  4 11  2  0
 11 12  1  0
 12 13  2  0
 13 14  1  0
 14 15  3  0
 15 16  1  0
 16 17  1  0
 16 18  1  0
 16 19  1  0
 13 20  1  0
 20 21  2  0
 21 22  1  0
 23 22  1  6
 23 24  1  0
 24 25  1  0
 23 26  1  0
 26 27  2  0
 27 28  1  0
 28 29  2  0
 29 30  1  0
 30 31  2  0
 31 26  1  0
 21 32  1  0
 32 33  2  0
 33 12  1  0
 33  3  1  0
M  END
> <assay_chembl_id>
CHEMBL1109957

> <assay_description>
Antiproliferative activity against human LNCAP cells

> <document_journal>
Bioorg Med Chem Lett

> <molecule_chembl_id>
CHEMBL1099296

> <standard_value>
68

> <IC50_uM>
0.068

> <Activity>
Yes

> <Canonical_Smiles>
CCn1c(-c2nonc2N)nc2c(C#CC(C)(C)O)nc(O[C@H](CN)c3ccccc3)cc21

$$$$

  SciTegic03142313312D

 34 37  0  0  1  0            999 V2000
   -0.2237   -5.5078    0.0000 C   0  0
   -0.6890   -4.0818    0.0000 C   0  0
    0.3114   -2.9665    0.0000 N   0  0
    1.8032   -3.1233    0.0000 C   0  0
    2.5536   -4.4230    0.0000 C   0  0
    4.0417   -4.4398    0.0000 N   0  0
    4.4674   -5.8782    0.0000 O   0  0
    3.2310   -6.7275    0.0000 N   0  0
    2.0412   -5.8141    0.0000 C   0  0
    0.6003   -6.2309    0.0000 N   0  0
    2.4133   -1.7530    0.0000 N   0  0
    1.2990   -0.7500    0.0000 C   0  0
    1.2990    0.7500    0.0000 C   0  0
    2.5988    1.5004    0.0000 C   0  0
    3.8985    2.2508    0.0000 C   0  0
    5.1983    3.0013    0.0000 C   0  0
    5.1978    4.5013    0.0000 C   0  0
    6.4970    3.7519    0.0000 C   0  0
    6.4978    2.2521    0.0000 O   0  0
    0.0000    1.5000    0.0000 N   0  0
   -1.2990    0.7500    0.0000 C   0  0
   -2.6003    1.4977    0.0000 O   0  0
   -3.8990    0.7455    0.0000 C   0  0  1  0  0  0
   -3.8933   -0.7554    0.0000 C   0  0
   -2.5912   -1.5016    0.0000 C   0  0
   -2.5855   -3.0016    0.0000 N   0  0
   -5.2003    1.4932    0.0000 C   0  0
   -6.4994    0.7432    0.0000 C   0  0
   -7.7985    1.4932    0.0000 C   0  0
   -7.7985    2.9932    0.0000 C   0  0
   -6.4995    3.7432    0.0000 C   0  0
   -5.2004    2.9933    0.0000 C   0  0
   -1.2990   -0.7500    0.0000 C   0  0
    0.0000   -1.5000    0.0000 C   0  0
  1  2  1  0
  2  3  1  0
  3  4  1  0
  4  5  1  0
  5  6  2  0
  6  7  1  0
  7  8  1  0
  8  9  2  0
  9  5  1  0
  9 10  1  0
  4 11  2  0
 11 12  1  0
 12 13  2  0
 13 14  1  0
 14 15  3  0
 15 16  1  0
 16 17  1  0
 16 18  1  0
 16 19  1  0
 13 20  1  0
 20 21  2  0
 21 22  1  0
 23 22  1  1
 23 24  1  0
 24 25  1  0
 25 26  1  0
 23 27  1  0
 27 28  2  0
 28 29  1  0
 29 30  2  0
 30 31  1  0
 31 32  2  0
 32 27  1  0
 21 33  1  0
 33 34  2  0
 34 12  1  0
 34  3  1  0
M  END
> <assay_chembl_id>
CHEMBL1109957

> <assay_description>
Antiproliferative activity against human LNCAP cells

> <document_journal>
Bioorg Med Chem Lett

> <molecule_chembl_id>
CHEMBL1099297

> <standard_value>
5

> <IC50_uM>
0.005

> <Activity>
Yes

> <Canonical_Smiles>
CCn1c(-c2nonc2N)nc2c(C#CC(C)(C)O)nc(O[C@@H](CCN)c3ccccc3)cc21

$$$$

  SciTegic03142313312D

 34 37  0  0  1  0            999 V2000
   -0.2237   -5.5078    0.0000 C   0  0
   -0.6890   -4.0818    0.0000 C   0  0
    0.3114   -2.9665    0.0000 N   0  0
    1.8032   -3.1233    0.0000 C   0  0
    2.5536   -4.4230    0.0000 C   0  0
    4.0417   -4.4398    0.0000 N   0  0
    4.4674   -5.8782    0.0000 O   0  0
    3.2310   -6.7275    0.0000 N   0  0
    2.0412   -5.8141    0.0000 C   0  0
    0.6003   -6.2309    0.0000 N   0  0
    2.4133   -1.7530    0.0000 N   0  0
    1.2990   -0.7500    0.0000 C   0  0
    1.2990    0.7500    0.0000 C   0  0
    2.5988    1.5004    0.0000 C   0  0
    3.8985    2.2508    0.0000 C   0  0
    5.1983    3.0013    0.0000 C   0  0
    5.1978    4.5013    0.0000 C   0  0
    6.4970    3.7519    0.0000 C   0  0
    6.4978    2.2521    0.0000 O   0  0
    0.0000    1.5000    0.0000 N   0  0
   -1.2990    0.7500    0.0000 C   0  0
   -2.6003    1.4977    0.0000 O   0  0
   -3.8990    0.7455    0.0000 C   0  0  2  0  0  0
   -3.8933   -0.7554    0.0000 C   0  0
   -2.5912   -1.5016    0.0000 C   0  0
   -2.5855   -3.0016    0.0000 N   0  0
   -5.2003    1.4932    0.0000 C   0  0
   -6.4994    0.7432    0.0000 C   0  0
   -7.7985    1.4932    0.0000 C   0  0
   -7.7985    2.9932    0.0000 C   0  0
   -6.4995    3.7432    0.0000 C   0  0
   -5.2004    2.9933    0.0000 C   0  0
   -1.2990   -0.7500    0.0000 C   0  0
    0.0000   -1.5000    0.0000 C   0  0
  1  2  1  0
  2  3  1  0
  3  4  1  0
  4  5  1  0
  5  6  2  0
  6  7  1  0
  7  8  1  0
  8  9  2  0
  9  5  1  0
  9 10  1  0
  4 11  2  0
 11 12  1  0
 12 13  2  0
 13 14  1  0
 14 15  3  0
 15 16  1  0
 16 17  1  0
 16 18  1  0
 16 19  1  0
 13 20  1  0
 20 21  2  0
 21 22  1  0
 23 22  1  6
 23 24  1  0
 24 25  1  0
 25 26  1  0
 23 27  1  0
 27 28  2  0
 28 29  1  0
 29 30  2  0
 30 31  1  0
 31 32  2  0
 32 27  1  0
 21 33  1  0
 33 34  2  0
 34 12  1  0
 34  3  1  0
M  END
> <assay_chembl_id>
CHEMBL1109957

> <assay_description>
Antiproliferative activity against human LNCAP cells

> <document_journal>
Bioorg Med Chem Lett

> <molecule_chembl_id>
CHEMBL1099298

> <standard_value>
85

> <IC50_uM>
0.085

> <Activity>
Yes

> <Canonical_Smiles>
CCn1c(-c2nonc2N)nc2c(C#CC(C)(C)O)nc(O[C@H](CCN)c3ccccc3)cc21

$$$$

  SciTegic03142313312D

 50 56  0  0  0  0            999 V2000
   -6.4771   -7.7926    0.0000 C   0  0
   -5.3902   -6.7589    0.0000 O   0  0
   -3.9504   -7.1827    0.0000 C   0  0
   -3.5983   -8.6408    0.0000 O   0  0
   -2.8628   -6.1485    0.0000 N   0  0
   -1.4233   -6.5700    0.0000 C   0  0
   -0.3384   -5.5341    0.0000 C   0  0
   -0.6928   -4.0817    0.0000 C   0  0
    0.3114   -2.9665    0.0000 N   0  0
    1.8032   -3.1233    0.0000 N   0  0
    2.4133   -1.7530    0.0000 C   0  0
    1.2990   -0.7500    0.0000 C   0  0
    1.2990    0.7500    0.0000 C   0  0
    2.5987    1.5004    0.0000 N   0  0
    3.8991    0.7525    0.0000 C   0  0
    5.1969    1.5046    0.0000 C   0  0
    5.1945    3.0046    0.0000 O   0  0
    3.8943    3.7525    0.0000 C   0  0
    2.5964    3.0004    0.0000 C   0  0
    0.0000    1.5000    0.0000 N   0  0
   -1.2990    0.7500    0.0000 C   0  0
   -2.5987    1.5004    0.0000 C   0  0
   -2.6012    3.0004    0.0000 C   0  0
   -3.9015    3.7484    0.0000 C   0  0
   -5.1993    2.9963    0.0000 C   0  0
   -6.5018    3.7420    0.0000 N   0  0
   -7.7993    2.9876    0.0000 C   0  0
   -7.7943    1.4876    0.0000 O   0  0
   -9.1017    3.7333    0.0000 N   0  0
  -10.3992    2.9790    0.0000 C   0  0
  -11.7021    3.7223    0.0000 C   0  0
  -12.9973    2.9658    0.0000 C   0  0
  -12.9898    1.4658    0.0000 C   0  0
  -14.2842    0.7062    0.0000 C   0  0
  -14.2744   -0.7946    0.0000 C   0  0
  -15.5688   -1.5543    0.0000 N   0  0
  -15.5613   -3.0543    0.0000 C   0  0
  -16.8565   -3.8109    0.0000 C   0  0
  -18.1594   -3.0675    0.0000 N   0  0
  -19.4546   -3.8240    0.0000 C   0  0
  -18.1670   -1.5675    0.0000 C   0  0
  -16.8717   -0.8109    0.0000 C   0  0
  -11.6870    0.7224    0.0000 C   0  0
  -10.3917    1.4789    0.0000 C   0  0
   -5.1969    1.4963    0.0000 C   0  0
   -3.8967    0.7484    0.0000 C   0  0
   -1.2990   -0.7500    0.0000 N   0  0
    0.0000   -1.5000    0.0000 C   0  0
   -2.1327   -3.6551    0.0000 C   0  0
   -3.2175   -4.6910    0.0000 C   0  0
  1  2  1  0
  2  3  1  0
  3  4  2  0
  3  5  1  0
  5  6  1  0
  6  7  1  0
  7  8  1  0
  8  9  1  0
  9 10  1  0
 10 11  2  0
 11 12  1  0
 12 13  2  0
 13 14  1  0
 14 15  1  0
 15 16  1  0
 16 17  1  0
 17 18  1  0
 18 19  1  0
 19 14  1  0
 13 20  1  0
 20 21  2  0
 21 22  1  0
 22 23  2  0
 23 24  1  0
 24 25  2  0
 25 26  1  0
 26 27  1  0
 27 28  2  0
 27 29  1  0
 29 30  1  0
 30 31  2  0
 31 32  1  0
 32 33  2  0
 33 34  1  0
 34 35  1  0
 35 36  1  0
 36 37  1  0
 37 38  1  0
 38 39  1  0
 39 40  1  0
 39 41  1  0
 41 42  1  0
 42 36  1  0
 33 43  1  0
 43 44  2  0
 44 30  1  0
 25 45  1  0
 45 46  2  0
 46 22  1  0
 21 47  1  0
 47 48  2  0
 48 12  1  0
 48  9  1  0
  8 49  1  0
 49 50  1  0
 50  5  1  0
M  END
> <assay_chembl_id>
CHEMBL1104616

> <assay_description>
Antiproliferative activity against human LNCAP cells after 3 days by MTS assay

> <document_journal>
J Med Chem

> <molecule_chembl_id>
CHEMBL1098247

> <standard_value>
1.4

> <IC50_uM>
0.0014

> <Activity>
Yes

> <Canonical_Smiles>
COC(=O)N1CCC(n2ncc3c(N4CCOCC4)nc(-c4ccc(NC(=O)Nc5ccc(CCN6CCN(C)CC6)cc5)cc4)nc32)CC1

$$$$

  SciTegic03142313312D

 49 55  0  0  0  0            999 V2000
   -6.4771   -7.7926    0.0000 C   0  0
   -5.3902   -6.7589    0.0000 O   0  0
   -3.9504   -7.1827    0.0000 C   0  0
   -3.5983   -8.6408    0.0000 O   0  0
   -2.8628   -6.1485    0.0000 N   0  0
   -1.4233   -6.5700    0.0000 C   0  0
   -0.3384   -5.5341    0.0000 C   0  0
   -0.6928   -4.0817    0.0000 C   0  0
    0.3114   -2.9665    0.0000 N   0  0
    1.8032   -3.1233    0.0000 N   0  0
    2.4133   -1.7530    0.0000 C   0  0
    1.2990   -0.7500    0.0000 C   0  0
    1.2990    0.7500    0.0000 C   0  0
    2.5987    1.5004    0.0000 N   0  0
    3.8991    0.7525    0.0000 C   0  0
    5.1969    1.5046    0.0000 C   0  0
    5.1945    3.0046    0.0000 O   0  0
    3.8943    3.7525    0.0000 C   0  0
    2.5964    3.0004    0.0000 C   0  0
    0.0000    1.5000    0.0000 N   0  0
   -1.2990    0.7500    0.0000 C   0  0
   -2.5987    1.5004    0.0000 C   0  0
   -2.6012    3.0004    0.0000 C   0  0
   -3.9015    3.7484    0.0000 C   0  0
   -5.1993    2.9963    0.0000 C   0  0
   -6.5018    3.7420    0.0000 N   0  0
   -7.7993    2.9876    0.0000 C   0  0
   -7.7943    1.4876    0.0000 O   0  0
   -9.1017    3.7333    0.0000 N   0  0
  -10.3992    2.9790    0.0000 C   0  0
  -11.7021    3.7223    0.0000 C   0  0
  -12.9973    2.9658    0.0000 C   0  0
  -12.9898    1.4658    0.0000 C   0  0
  -14.2842    0.7062    0.0000 C   0  0
  -14.2744   -0.7946    0.0000 C   0  0
  -15.5688   -1.5543    0.0000 N   0  0
  -15.5613   -3.0543    0.0000 C   0  0
  -16.8565   -3.8109    0.0000 C   0  0
  -18.1594   -3.0675    0.0000 O   0  0
  -18.1670   -1.5675    0.0000 C   0  0
  -16.8717   -0.8109    0.0000 C   0  0
  -11.6870    0.7224    0.0000 C   0  0
  -10.3917    1.4789    0.0000 C   0  0
   -5.1969    1.4963    0.0000 C   0  0
   -3.8967    0.7484    0.0000 C   0  0
   -1.2990   -0.7500    0.0000 N   0  0
    0.0000   -1.5000    0.0000 C   0  0
   -2.1327   -3.6551    0.0000 C   0  0
   -3.2175   -4.6910    0.0000 C   0  0
  1  2  1  0
  2  3  1  0
  3  4  2  0
  3  5  1  0
  5  6  1  0
  6  7  1  0
  7  8  1  0
  8  9  1  0
  9 10  1  0
 10 11  2  0
 11 12  1  0
 12 13  2  0
 13 14  1  0
 14 15  1  0
 15 16  1  0
 16 17  1  0
 17 18  1  0
 18 19  1  0
 19 14  1  0
 13 20  1  0
 20 21  2  0
 21 22  1  0
 22 23  2  0
 23 24  1  0
 24 25  2  0
 25 26  1  0
 26 27  1  0
 27 28  2  0
 27 29  1  0
 29 30  1  0
 30 31  2  0
 31 32  1  0
 32 33  2  0
 33 34  1  0
 34 35  1  0
 35 36  1  0
 36 37  1  0
 37 38  1  0
 38 39  1  0
 39 40  1  0
 40 41  1  0
 41 36  1  0
 33 42  1  0
 42 43  2  0
 43 30  1  0
 25 44  1  0
 44 45  2  0
 45 22  1  0
 21 46  1  0
 46 47  2  0
 47 12  1  0
 47  9  1  0
  8 48  1  0
 48 49  1  0
 49  5  1  0
M  END
> <assay_chembl_id>
CHEMBL1104616

> <assay_description>
Antiproliferative activity against human LNCAP cells after 3 days by MTS assay

> <document_journal>
J Med Chem

> <molecule_chembl_id>
CHEMBL1098248

> <standard_value>
5

> <IC50_uM>
0.005

> <Activity>
Yes

> <Canonical_Smiles>
COC(=O)N1CCC(n2ncc3c(N4CCOCC4)nc(-c4ccc(NC(=O)Nc5ccc(CCN6CCOCC6)cc5)cc4)nc32)CC1

$$$$

  SciTegic03142313312D

 41 46  0  0  0  0            999 V2000
    5.1855   -6.0062    0.0000 O   0  0
    6.4870   -5.2605    0.0000 C   0  0
    7.7840   -6.0157    0.0000 N   0  0
    7.7795   -7.5165    0.0000 C   0  0
    9.0765   -8.2716    0.0000 C   0  0
    9.0720   -9.7716    0.0000 O   0  0
    6.4915   -3.7597    0.0000 N   0  0
    5.1945   -3.0045    0.0000 C   0  0
    5.1969   -1.5045    0.0000 C   0  0
    3.8991   -0.7525    0.0000 C   0  0
    2.5987   -1.5004    0.0000 C   0  0
    1.2990   -0.7500    0.0000 C   0  0
    1.2990    0.7500    0.0000 N   0  0
    0.0000    1.5000    0.0000 C   0  0
    0.0000    3.0008    0.0000 N   0  0
    1.2978    3.7529    0.0000 C   0  0
    1.2954    5.2529    0.0000 C   0  0
   -0.0048    6.0009    0.0000 O   0  0
   -1.3026    5.2488    0.0000 C   0  0
   -1.3002    3.7488    0.0000 C   0  0
   -1.2990    0.7500    0.0000 C   0  0
   -2.7248    1.2135    0.0000 C   0  0
   -3.6065    0.0000    0.0000 N   0  0
   -2.7248   -1.2135    0.0000 N   0  0
   -3.1884   -2.6409    0.0000 C   0  0
   -4.6234   -3.0602    0.0000 C   0  0
   -4.9781   -4.5176    0.0000 C   0  0
   -3.8933   -5.5536    0.0000 N   0  0
   -4.2452   -7.0125    0.0000 C   0  0
   -3.1582   -8.0475    0.0000 C   0  0
   -3.5078   -9.5062    0.0000 C   0  0
   -2.4194  -10.5384    0.0000 C   0  0
   -0.9813  -10.1118    0.0000 C   0  0
   -0.6316   -8.6531    0.0000 C   0  0
   -1.7201   -7.6210    0.0000 C   0  0
   -2.4537   -5.1320    0.0000 C   0  0
   -2.0990   -3.6745    0.0000 C   0  0
   -1.2990   -0.7500    0.0000 C   0  0
    0.0000   -1.5000    0.0000 N   0  0
    2.5965   -3.0004    0.0000 C   0  0
    3.8943   -3.7525    0.0000 C   0  0
  1  2  2  0
  2  3  1  0
  3  4  1  0
  4  5  1  0
  5  6  1  0
  2  7  1  0
  7  8  1  0
  8  9  2  0
  9 10  1  0
 10 11  2  0
 11 12  1  0
 12 13  2  0
 13 14  1  0
 14 15  1  0
 15 16  1  0
 16 17  1  0
 17 18  1  0
 18 19  1  0
 19 20  1  0
 20 15  1  0
 14 21  2  0
 21 22  1  0
 22 23  2  0
 23 24  1  0
 24 25  1  0
 25 26  1  0
 26 27  1  0
 27 28  1  0
 28 29  1  0
 29 30  1  0
 30 31  2  0
 31 32  1  0
 32 33  2  0
 33 34  1  0
 34 35  2  0
 35 30  1  0
 28 36  1  0
 36 37  1  0
 37 25  1  0
 24 38  1  0
 38 21  1  0
 38 39  2  0
 39 12  1  0
 11 40  1  0
 40 41  2  0
 41  8  1  0
M  END
> <assay_chembl_id>
CHEMBL1104616

> <assay_description>
Antiproliferative activity against human LNCAP cells after 3 days by MTS assay

> <document_journal>
J Med Chem

> <molecule_chembl_id>
CHEMBL1097896

> <standard_value>
26

> <IC50_uM>
0.026

> <Activity>
Yes

> <Canonical_Smiles>
O=C(NCCO)Nc1ccc(-c2nc(N3CCOCC3)c3cnn(C4CCN(Cc5ccccc5)CC4)c3n2)cc1

$$$$

  SciTegic03142313312D

 39 43  0  0  0  0            999 V2000
    7.7795   -7.5156    0.0000 C   0  0
    7.7840   -6.0157    0.0000 N   0  0
    6.4870   -5.2605    0.0000 C   0  0
    5.1855   -6.0062    0.0000 O   0  0
    6.4915   -3.7597    0.0000 N   0  0
    5.1945   -3.0045    0.0000 C   0  0
    5.1969   -1.5045    0.0000 C   0  0
    3.8991   -0.7525    0.0000 C   0  0
    2.5987   -1.5004    0.0000 C   0  0
    1.2990   -0.7500    0.0000 C   0  0
    1.2990    0.7500    0.0000 N   0  0
    0.0000    1.5000    0.0000 C   0  0
    0.0000    3.0008    0.0000 N   0  0
    1.2978    3.7529    0.0000 C   0  0
    1.2954    5.2529    0.0000 C   0  0
   -0.0048    6.0009    0.0000 O   0  0
   -1.3026    5.2488    0.0000 C   0  0
   -1.3002    3.7488    0.0000 C   0  0
   -1.2990    0.7500    0.0000 C   0  0
   -2.7248    1.2135    0.0000 C   0  0
   -3.6065    0.0000    0.0000 N   0  0
   -2.7248   -1.2135    0.0000 N   0  0
   -3.1884   -2.6409    0.0000 C   0  0
   -4.6234   -3.0602    0.0000 C   0  0
   -4.9781   -4.5176    0.0000 C   0  0
   -3.8933   -5.5536    0.0000 N   0  0
   -4.2452   -7.0125    0.0000 C   0  0
   -5.6840   -7.4366    0.0000 O   0  0
   -3.1582   -8.0475    0.0000 O   0  0
   -3.5101   -9.5065    0.0000 C   0  0
   -2.4238  -10.5408    0.0000 C   0  0
   -3.8625  -10.9645    0.0000 C   0  0
   -4.9489   -9.9305    0.0000 C   0  0
   -2.4537   -5.1320    0.0000 C   0  0
   -2.0990   -3.6745    0.0000 C   0  0
   -1.2990   -0.7500    0.0000 C   0  0
    0.0000   -1.5000    0.0000 N   0  0
    2.5965   -3.0004    0.0000 C   0  0
    3.8943   -3.7525    0.0000 C   0  0
  1  2  1  0
  2  3  1  0
  3  4  2  0
  3  5  1  0
  5  6  1  0
  6  7  2  0
  7  8  1  0
  8  9  2  0
  9 10  1  0
 10 11  2  0
 11 12  1  0
 12 13  1  0
 13 14  1  0
 14 15  1  0
 15 16  1  0
 16 17  1  0
 17 18  1  0
 18 13  1  0
 12 19  2  0
 19 20  1  0
 20 21  2  0
 21 22  1  0
 22 23  1  0
 23 24  1  0
 24 25  1  0
 25 26  1  0
 26 27  1  0
 27 28  2  0
 27 29  1  0
 29 30  1  0
 30 31  1  0
 30 32  1  0
 30 33  1  0
 26 34  1  0
 34 35  1  0
 35 23  1  0
 22 36  1  0
 36 19  1  0
 36 37  2  0
 37 10  1  0
  9 38  1  0
 38 39  2  0
 39  6  1  0
M  END
> <assay_chembl_id>
CHEMBL1104616

> <assay_description>
Antiproliferative activity against human LNCAP cells after 3 days by MTS assay

> <document_journal>
J Med Chem

> <molecule_chembl_id>
CHEMBL1095933

> <standard_value>
27

> <IC50_uM>
0.027

> <Activity>
Yes

> <Canonical_Smiles>
CNC(=O)Nc1ccc(-c2nc(N3CCOCC3)c3cnn(C4CCN(C(=O)OC(C)(C)C)CC4)c3n2)cc1

$$$$

  SciTegic03142313312D

 41 46  0  0  0  0            999 V2000
   -6.4771   -7.7926    0.0000 C   0  0
   -5.3902   -6.7589    0.0000 O   0  0
   -3.9504   -7.1827    0.0000 C   0  0
   -3.5983   -8.6408    0.0000 O   0  0
   -2.8628   -6.1485    0.0000 N   0  0
   -1.4233   -6.5700    0.0000 C   0  0
   -0.3384   -5.5341    0.0000 C   0  0
   -0.6928   -4.0817    0.0000 C   0  0
    0.3114   -2.9665    0.0000 N   0  0
    1.8032   -3.1233    0.0000 N   0  0
    2.4133   -1.7530    0.0000 C   0  0
    1.2990   -0.7500    0.0000 C   0  0
    1.2990    0.7500    0.0000 C   0  0
    2.5987    1.5004    0.0000 N   0  0
    3.8991    0.7525    0.0000 C   0  0
    5.1969    1.5046    0.0000 C   0  0
    5.1945    3.0046    0.0000 O   0  0
    3.8943    3.7525    0.0000 C   0  0
    2.5964    3.0004    0.0000 C   0  0
    0.0000    1.5000    0.0000 N   0  0
   -1.2990    0.7500    0.0000 C   0  0
   -2.5987    1.5004    0.0000 C   0  0
   -2.6012    3.0004    0.0000 C   0  0
   -3.9015    3.7484    0.0000 C   0  0
   -5.1993    2.9963    0.0000 C   0  0
   -6.5018    3.7420    0.0000 N   0  0
   -7.7993    2.9876    0.0000 C   0  0
   -7.7943    1.4876    0.0000 O   0  0
   -9.1017    3.7333    0.0000 N   0  0
  -10.3992    2.9790    0.0000 C   0  0
  -11.7021    3.7223    0.0000 C   0  0
  -12.9973    2.9658    0.0000 C   0  0
  -12.9898    1.4658    0.0000 C   0  0
  -11.6870    0.7224    0.0000 C   0  0
  -10.3917    1.4789    0.0000 C   0  0
   -5.1969    1.4963    0.0000 C   0  0
   -3.8967    0.7484    0.0000 C   0  0
   -1.2990   -0.7500    0.0000 N   0  0
    0.0000   -1.5000    0.0000 C   0  0
   -2.1327   -3.6551    0.0000 C   0  0
   -3.2175   -4.6910    0.0000 C   0  0
  1  2  1  0
  2  3  1  0
  3  4  2  0
  3  5  1  0
  5  6  1  0
  6  7  1  0
  7  8  1  0
  8  9  1  0
  9 10  1  0
 10 11  2  0
 11 12  1  0
 12 13  2  0
 13 14  1  0
 14 15  1  0
 15 16  1  0
 16 17  1  0
 17 18  1  0
 18 19  1  0
 19 14  1  0
 13 20  1  0
 20 21  2  0
 21 22  1  0
 22 23  2  0
 23 24  1  0
 24 25  2  0
 25 26  1  0
 26 27  1  0
 27 28  2  0
 27 29  1  0
 29 30  1  0
 30 31  2  0
 31 32  1  0
 32 33  2  0
 33 34  1  0
 34 35  2  0
 35 30  1  0
 25 36  1  0
 36 37  2  0
 37 22  1  0
 21 38  1  0
 38 39  2  0
 39 12  1  0
 39  9  1  0
  8 40  1  0
 40 41  1  0
 41  5  1  0
M  END
> <assay_chembl_id>
CHEMBL1104616

> <assay_description>
Antiproliferative activity against human LNCAP cells after 3 days by MTS assay

> <document_journal>
J Med Chem

> <molecule_chembl_id>
CHEMBL1098244

> <standard_value>
27

> <IC50_uM>
0.027

> <Activity>
Yes

> <Canonical_Smiles>
COC(=O)N1CCC(n2ncc3c(N4CCOCC4)nc(-c4ccc(NC(=O)Nc5ccccc5)cc4)nc32)CC1

$$$$

  SciTegic03142313312D

 38 42  0  0  0  0            999 V2000
    7.7795   -7.5156    0.0000 C   0  0
    7.7840   -6.0157    0.0000 N   0  0
    6.4870   -5.2605    0.0000 C   0  0
    5.1855   -6.0062    0.0000 O   0  0
    6.4915   -3.7597    0.0000 N   0  0
    5.1945   -3.0045    0.0000 C   0  0
    5.1969   -1.5045    0.0000 C   0  0
    3.8991   -0.7525    0.0000 C   0  0
    2.5987   -1.5004    0.0000 C   0  0
    1.2990   -0.7500    0.0000 C   0  0
    1.2990    0.7500    0.0000 N   0  0
    0.0000    1.5000    0.0000 C   0  0
    0.0000    3.0008    0.0000 N   0  0
    1.2978    3.7529    0.0000 C   0  0
    1.2954    5.2529    0.0000 C   0  0
   -0.0048    6.0009    0.0000 O   0  0
   -1.3026    5.2488    0.0000 C   0  0
   -1.3002    3.7488    0.0000 C   0  0
   -1.2990    0.7500    0.0000 C   0  0
   -2.7248    1.2135    0.0000 C   0  0
   -3.6065    0.0000    0.0000 N   0  0
   -2.7248   -1.2135    0.0000 N   0  0
   -3.1884   -2.6409    0.0000 C   0  0
   -4.6234   -3.0602    0.0000 C   0  0
   -4.9781   -4.5176    0.0000 C   0  0
   -3.8933   -5.5536    0.0000 N   0  0
   -4.2452   -7.0125    0.0000 C   0  0
   -5.6840   -7.4366    0.0000 O   0  0
   -3.1582   -8.0475    0.0000 O   0  0
   -3.5101   -9.5065    0.0000 C   0  0
   -2.4238  -10.5408    0.0000 C   0  0
   -4.9489   -9.9305    0.0000 C   0  0
   -2.4537   -5.1320    0.0000 C   0  0
   -2.0990   -3.6745    0.0000 C   0  0
   -1.2990   -0.7500    0.0000 C   0  0
    0.0000   -1.5000    0.0000 N   0  0
    2.5965   -3.0004    0.0000 C   0  0
    3.8943   -3.7525    0.0000 C   0  0
  1  2  1  0
  2  3  1  0
  3  4  2  0
  3  5  1  0
  5  6  1  0
  6  7  2  0
  7  8  1  0
  8  9  2  0
  9 10  1  0
 10 11  2  0
 11 12  1  0
 12 13  1  0
 13 14  1  0
 14 15  1  0
 15 16  1  0
 16 17  1  0
 17 18  1  0
 18 13  1  0
 12 19  2  0
 19 20  1  0
 20 21  2  0
 21 22  1  0
 22 23  1  0
 23 24  1  0
 24 25  1  0
 25 26  1  0
 26 27  1  0
 27 28  2  0
 27 29  1  0
 29 30  1  0
 30 31  1  0
 30 32  1  0
 26 33  1  0
 33 34  1  0
 34 23  1  0
 22 35  1  0
 35 19  1  0
 35 36  2  0
 36 10  1  0
  9 37  1  0
 37 38  2  0
 38  6  1  0
M  END
> <assay_chembl_id>
CHEMBL1104616

> <assay_description>
Antiproliferative activity against human LNCAP cells after 3 days by MTS assay

> <document_journal>
J Med Chem

> <molecule_chembl_id>
CHEMBL1095932

> <standard_value>
28

> <IC50_uM>
0.028

> <Activity>
Yes

> <Canonical_Smiles>
CNC(=O)Nc1ccc(-c2nc(N3CCOCC3)c3cnn(C4CCN(C(=O)OC(C)C)CC4)c3n2)cc1

$$$$

  SciTegic03142313312D

 40 45  0  0  0  0            999 V2000
    9.0758   -8.2712    0.0000 C   0  0
    7.7795   -7.5165    0.0000 C   0  0
    7.7840   -6.0157    0.0000 N   0  0
    6.4870   -5.2605    0.0000 C   0  0
    5.1855   -6.0062    0.0000 O   0  0
    6.4915   -3.7597    0.0000 N   0  0
    5.1945   -3.0045    0.0000 C   0  0
    5.1969   -1.5045    0.0000 C   0  0
    3.8991   -0.7525    0.0000 C   0  0
    2.5987   -1.5004    0.0000 C   0  0
    1.2990   -0.7500    0.0000 C   0  0
    1.2990    0.7500    0.0000 N   0  0
    0.0000    1.5000    0.0000 C   0  0
    0.0000    3.0008    0.0000 N   0  0
    1.2978    3.7529    0.0000 C   0  0
    1.2954    5.2529    0.0000 C   0  0
   -0.0048    6.0009    0.0000 O   0  0
   -1.3026    5.2488    0.0000 C   0  0
   -1.3002    3.7488    0.0000 C   0  0
   -1.2990    0.7500    0.0000 C   0  0
   -2.7248    1.2135    0.0000 C   0  0
   -3.6065    0.0000    0.0000 N   0  0
   -2.7248   -1.2135    0.0000 N   0  0
   -3.1884   -2.6409    0.0000 C   0  0
   -4.6234   -3.0602    0.0000 C   0  0
   -4.9781   -4.5176    0.0000 C   0  0
   -3.8933   -5.5536    0.0000 N   0  0
   -4.2452   -7.0125    0.0000 C   0  0
   -3.1582   -8.0475    0.0000 C   0  0
   -3.5078   -9.5062    0.0000 C   0  0
   -2.4194  -10.5384    0.0000 C   0  0
   -0.9813  -10.1118    0.0000 C   0  0
   -0.6316   -8.6531    0.0000 C   0  0
   -1.7201   -7.6210    0.0000 C   0  0
   -2.4537   -5.1320    0.0000 C   0  0
   -2.0990   -3.6745    0.0000 C   0  0
   -1.2990   -0.7500    0.0000 C   0  0
    0.0000   -1.5000    0.0000 N   0  0
    2.5965   -3.0004    0.0000 C   0  0
    3.8943   -3.7525    0.0000 C   0  0
  1  2  1  0
  2  3  1  0
  3  4  1  0
  4  5  2  0
  4  6  1  0
  6  7  1  0
  7  8  2  0
  8  9  1  0
  9 10  2  0
 10 11  1  0
 11 12  2  0
 12 13  1  0
 13 14  1  0
 14 15  1  0
 15 16  1  0
 16 17  1  0
 17 18  1  0
 18 19  1  0
 19 14  1  0
 13 20  2  0
 20 21  1  0
 21 22  2  0
 22 23  1  0
 23 24  1  0
 24 25  1  0
 25 26  1  0
 26 27  1  0
 27 28  1  0
 28 29  1  0
 29 30  2  0
 30 31  1  0
 31 32  2  0
 32 33  1  0
 33 34  2  0
 34 29  1  0
 27 35  1  0
 35 36  1  0
 36 24  1  0
 23 37  1  0
 37 20  1  0
 37 38  2  0
 38 11  1  0
 10 39  1  0
 39 40  2  0
 40  7  1  0
M  END
> <assay_chembl_id>
CHEMBL1104616

> <assay_description>
Antiproliferative activity against human LNCAP cells after 3 days by MTS assay

> <document_journal>
J Med Chem

> <molecule_chembl_id>
CHEMBL1098306

> <standard_value>
30

> <IC50_uM>
0.03

> <Activity>
Yes

> <Canonical_Smiles>
CCNC(=O)Nc1ccc(-c2nc(N3CCOCC3)c3cnn(C4CCN(Cc5ccccc5)CC4)c3n2)cc1

$$$$

  SciTegic03142313312D

 38 43  0  0  0  0            999 V2000
    5.1855   -6.0062    0.0000 N   0  0
    6.4870   -5.2605    0.0000 C   0  0
    7.7833   -6.0152    0.0000 O   0  0
    6.4915   -3.7597    0.0000 N   0  0
    5.1945   -3.0045    0.0000 C   0  0
    5.1969   -1.5045    0.0000 C   0  0
    3.8991   -0.7525    0.0000 C   0  0
    2.5987   -1.5004    0.0000 C   0  0
    1.2990   -0.7500    0.0000 C   0  0
    1.2990    0.7500    0.0000 N   0  0
    0.0000    1.5000    0.0000 C   0  0
    0.0000    3.0008    0.0000 N   0  0
    1.2978    3.7529    0.0000 C   0  0
    1.2954    5.2529    0.0000 C   0  0
   -0.0048    6.0009    0.0000 O   0  0
   -1.3026    5.2488    0.0000 C   0  0
   -1.3002    3.7488    0.0000 C   0  0
   -1.2990    0.7500    0.0000 C   0  0
   -2.7248    1.2135    0.0000 C   0  0
   -3.6065    0.0000    0.0000 N   0  0
   -2.7248   -1.2135    0.0000 N   0  0
   -3.1884   -2.6409    0.0000 C   0  0
   -4.6234   -3.0602    0.0000 C   0  0
   -4.9781   -4.5176    0.0000 C   0  0
   -3.8933   -5.5536    0.0000 N   0  0
   -4.2452   -7.0125    0.0000 C   0  0
   -3.1582   -8.0475    0.0000 C   0  0
   -3.5078   -9.5062    0.0000 C   0  0
   -2.4194  -10.5384    0.0000 C   0  0
   -0.9813  -10.1118    0.0000 C   0  0
   -0.6316   -8.6531    0.0000 C   0  0
   -1.7201   -7.6210    0.0000 C   0  0
   -2.4537   -5.1320    0.0000 C   0  0
   -2.0990   -3.6745    0.0000 C   0  0
   -1.2990   -0.7500    0.0000 C   0  0
    0.0000   -1.5000    0.0000 N   0  0
    2.5965   -3.0004    0.0000 C   0  0
    3.8943   -3.7525    0.0000 C   0  0
  1  2  1  0
  2  3  2  0
  2  4  1  0
  4  5  1  0
  5  6  2  0
  6  7  1  0
  7  8  2  0
  8  9  1  0
  9 10  2  0
 10 11  1  0
 11 12  1  0
 12 13  1  0
 13 14  1  0
 14 15  1  0
 15 16  1  0
 16 17  1  0
 17 12  1  0
 11 18  2  0
 18 19  1  0
 19 20  2  0
 20 21  1  0
 21 22  1  0
 22 23  1  0
 23 24  1  0
 24 25  1  0
 25 26  1  0
 26 27  1  0
 27 28  2  0
 28 29  1  0
 29 30  2  0
 30 31  1  0
 31 32  2  0
 32 27  1  0
 25 33  1  0
 33 34  1  0
 34 22  1  0
 21 35  1  0
 35 18  1  0
 35 36  2  0
 36  9  1  0
  8 37  1  0
 37 38  2  0
 38  5  1  0
M  END
> <assay_chembl_id>
CHEMBL1104616

> <assay_description>
Antiproliferative activity against human LNCAP cells after 3 days by MTS assay

> <document_journal>
J Med Chem

> <molecule_chembl_id>
CHEMBL1098305

> <standard_value>
32

> <IC50_uM>
0.032

> <Activity>
Yes

> <Canonical_Smiles>
NC(=O)Nc1ccc(-c2nc(N3CCOCC3)c3cnn(C4CCN(Cc5ccccc5)CC4)c3n2)cc1

$$$$

  SciTegic03142313312D

 40 44  0  0  0  0            999 V2000
   -7.9167   -7.3695    0.0000 C   0  0
   -6.4777   -7.7931    0.0000 C   0  0
   -6.1256   -9.2512    0.0000 C   0  0
   -5.3902   -6.7589    0.0000 O   0  0
   -3.9504   -7.1827    0.0000 C   0  0
   -3.5983   -8.6408    0.0000 O   0  0
   -2.8628   -6.1485    0.0000 N   0  0
   -1.4233   -6.5700    0.0000 C   0  0
   -0.3384   -5.5341    0.0000 C   0  0
   -0.6928   -4.0817    0.0000 C   0  0
    0.3114   -2.9665    0.0000 N   0  0
    1.8032   -3.1233    0.0000 N   0  0
    2.4133   -1.7530    0.0000 C   0  0
    1.2990   -0.7500    0.0000 C   0  0
    1.2990    0.7500    0.0000 C   0  0
    2.5987    1.5004    0.0000 N   0  0
    3.8991    0.7525    0.0000 C   0  0
    5.1969    1.5046    0.0000 C   0  0
    5.1945    3.0046    0.0000 O   0  0
    3.8943    3.7525    0.0000 C   0  0
    2.5964    3.0004    0.0000 C   0  0
    0.0000    1.5000    0.0000 N   0  0
   -1.2990    0.7500    0.0000 C   0  0
   -2.5987    1.5004    0.0000 C   0  0
   -2.6012    3.0004    0.0000 C   0  0
   -3.9015    3.7484    0.0000 C   0  0
   -5.1993    2.9963    0.0000 C   0  0
   -6.5018    3.7420    0.0000 N   0  0
   -7.7993    2.9876    0.0000 C   0  0
   -7.7943    1.4876    0.0000 O   0  0
   -9.1017    3.7333    0.0000 N   0  0
  -10.3992    2.9790    0.0000 C   0  0
  -11.7017    3.7246    0.0000 C   0  0
  -12.9985    2.9707    0.0000 F   0  0
   -5.1969    1.4963    0.0000 C   0  0
   -3.8967    0.7484    0.0000 C   0  0
   -1.2990   -0.7500    0.0000 N   0  0
    0.0000   -1.5000    0.0000 C   0  0
   -2.1327   -3.6551    0.0000 C   0  0
   -3.2175   -4.6910    0.0000 C   0  0
  1  2  1  0
  2  3  1  0
  2  4  1  0
  4  5  1  0
  5  6  2  0
  5  7  1  0
  7  8  1  0
  8  9  1  0
  9 10  1  0
 10 11  1  0
 11 12  1  0
 12 13  2  0
 13 14  1  0
 14 15  2  0
 15 16  1  0
 16 17  1  0
 17 18  1  0
 18 19  1  0
 19 20  1  0
 20 21  1  0
 21 16  1  0
 15 22  1  0
 22 23  2  0
 23 24  1  0
 24 25  2  0
 25 26  1  0
 26 27  2  0
 27 28  1  0
 28 29  1  0
 29 30  2  0
 29 31  1  0
 31 32  1  0
 32 33  1  0
 33 34  1  0
 27 35  1  0
 35 36  2  0
 36 24  1  0
 23 37  1  0
 37 38  2  0
 38 14  1  0
 38 11  1  0
 10 39  1  0
 39 40  1  0
 40  7  1  0
M  END
> <assay_chembl_id>
CHEMBL1104616

> <assay_description>
Antiproliferative activity against human LNCAP cells after 3 days by MTS assay

> <document_journal>
J Med Chem

> <molecule_chembl_id>
CHEMBL1094981

> <standard_value>
40

> <IC50_uM>
0.04

> <Activity>
Yes

> <Canonical_Smiles>
CC(C)OC(=O)N1CCC(n2ncc3c(N4CCOCC4)nc(-c4ccc(NC(=O)NCCF)cc4)nc32)CC1

$$$$

  SciTegic03142313312D

 41 47  0  0  0  0            999 V2000
    5.1855   -6.0062    0.0000 O   0  0
    6.4870   -5.2605    0.0000 C   0  0
    6.4915   -3.7597    0.0000 N   0  0
    5.1945   -3.0045    0.0000 C   0  0
    5.1969   -1.5045    0.0000 C   0  0
    3.8991   -0.7525    0.0000 C   0  0
    2.5987   -1.5004    0.0000 C   0  0
    1.2990   -0.7500    0.0000 C   0  0
    1.2990    0.7500    0.0000 N   0  0
    0.0000    1.5000    0.0000 C   0  0
    0.0000    3.0008    0.0000 N   0  0
    1.2978    3.7529    0.0000 C   0  0
    1.2954    5.2529    0.0000 C   0  0
   -0.0048    6.0009    0.0000 O   0  0
   -1.3026    5.2488    0.0000 C   0  0
   -1.3002    3.7488    0.0000 C   0  0
   -1.2990    0.7500    0.0000 C   0  0
   -2.7248    1.2135    0.0000 C   0  0
   -3.6065    0.0000    0.0000 N   0  0
   -2.7248   -1.2135    0.0000 N   0  0
   -3.1884   -2.6409    0.0000 C   0  0
   -4.6234   -3.0602    0.0000 C   0  0
   -4.9781   -4.5176    0.0000 C   0  0
   -3.8933   -5.5536    0.0000 N   0  0
   -4.2452   -7.0125    0.0000 C   0  0
   -3.1582   -8.0475    0.0000 C   0  0
   -3.5078   -9.5062    0.0000 C   0  0
   -2.4194  -10.5384    0.0000 C   0  0
   -0.9813  -10.1118    0.0000 C   0  0
   -0.6316   -8.6531    0.0000 C   0  0
   -1.7201   -7.6210    0.0000 C   0  0
   -2.4537   -5.1320    0.0000 C   0  0
   -2.0990   -3.6745    0.0000 C   0  0
   -1.2990   -0.7500    0.0000 C   0  0
    0.0000   -1.5000    0.0000 N   0  0
    2.5965   -3.0004    0.0000 C   0  0
    3.8943   -3.7525    0.0000 C   0  0
    7.7840   -6.0157    0.0000 N   0  0
    7.7795   -7.5165    0.0000 C   0  0
    8.5233   -8.7279    0.0000 C   0  0
    7.0233   -8.7202    0.0000 C   0  0
  1  2  2  0
  2  3  1  0
  3  4  1  0
  4  5  2  0
  5  6  1  0
  6  7  2  0
  7  8  1  0
  8  9  2  0
  9 10  1  0
 10 11  1  0
 11 12  1  0
 12 13  1  0
 13 14  1  0
 14 15  1  0
 15 16  1  0
 16 11  1  0
 10 17  2  0
 17 18  1  0
 18 19  2  0
 19 20  1  0
 20 21  1  0
 21 22  1  0
 22 23  1  0
 23 24  1  0
 24 25  1  0
 25 26  1  0
 26 27  2  0
 27 28  1  0
 28 29  2  0
 29 30  1  0
 30 31  2  0
 31 26  1  0
 24 32  1  0
 32 33  1  0
 33 21  1  0
 20 34  1  0
 34 17  1  0
 34 35  2  0
 35  8  1  0
  7 36  1  0
 36 37  2  0
 37  4  1  0
  2 38  1  0
 38 39  1  0
 39 40  1  0
 40 41  1  0
 41 39  1  0
M  END
> <assay_chembl_id>
CHEMBL1104616

> <assay_description>
Antiproliferative activity against human LNCAP cells after 3 days by MTS assay

> <document_journal>
J Med Chem

> <molecule_chembl_id>
CHEMBL1097895

> <standard_value>
50

> <IC50_uM>
0.05

> <Activity>
Yes

> <Canonical_Smiles>
O=C(Nc1ccc(-c2nc(N3CCOCC3)c3cnn(C4CCN(Cc5ccccc5)CC4)c3n2)cc1)NC1CC1

$$$$

  SciTegic03142313312D

 40 45  0  0  0  0            999 V2000
   -7.9167   -7.3695    0.0000 C   0  0
   -6.4777   -7.7931    0.0000 C   0  0
   -6.1256   -9.2512    0.0000 C   0  0
   -5.3902   -6.7589    0.0000 O   0  0
   -3.9504   -7.1827    0.0000 C   0  0
   -3.5983   -8.6408    0.0000 O   0  0
   -2.8628   -6.1485    0.0000 N   0  0
   -1.4233   -6.5700    0.0000 C   0  0
   -0.3384   -5.5341    0.0000 C   0  0
   -0.6928   -4.0817    0.0000 C   0  0
    0.3114   -2.9665    0.0000 N   0  0
    1.8032   -3.1233    0.0000 N   0  0
    2.4133   -1.7530    0.0000 C   0  0
    1.2990   -0.7500    0.0000 C   0  0
    1.2990    0.7500    0.0000 C   0  0
    2.5987    1.5004    0.0000 N   0  0
    3.8991    0.7525    0.0000 C   0  0
    5.1969    1.5046    0.0000 C   0  0
    5.1945    3.0046    0.0000 O   0  0
    3.8943    3.7525    0.0000 C   0  0
    2.5964    3.0004    0.0000 C   0  0
    0.0000    1.5000    0.0000 N   0  0
   -1.2990    0.7500    0.0000 C   0  0
   -2.5987    1.5004    0.0000 C   0  0
   -2.6012    3.0004    0.0000 C   0  0
   -3.9015    3.7484    0.0000 C   0  0
   -5.1993    2.9963    0.0000 C   0  0
   -6.5018    3.7420    0.0000 N   0  0
   -7.7993    2.9876    0.0000 C   0  0
   -7.7943    1.4876    0.0000 O   0  0
   -9.1017    3.7333    0.0000 N   0  0
  -10.3992    2.9790    0.0000 C   0  0
  -11.8203    3.0174    0.0000 C   0  0
  -11.0636    1.7222    0.0000 C   0  0
   -5.1969    1.4963    0.0000 C   0  0
   -3.8967    0.7484    0.0000 C   0  0
   -1.2990   -0.7500    0.0000 N   0  0
    0.0000   -1.5000    0.0000 C   0  0
   -2.1327   -3.6551    0.0000 C   0  0
   -3.2175   -4.6910    0.0000 C   0  0
  1  2  1  0
  2  3  1  0
  2  4  1  0
  4  5  1  0
  5  6  2  0
  5  7  1  0
  7  8  1  0
  8  9  1  0
  9 10  1  0
 10 11  1  0
 11 12  1  0
 12 13  2  0
 13 14  1  0
 14 15  2  0
 15 16  1  0
 16 17  1  0
 17 18  1  0
 18 19  1  0
 19 20  1  0
 20 21  1  0
 21 16  1  0
 15 22  1  0
 22 23  2  0
 23 24  1  0
 24 25  2  0
 25 26  1  0
 26 27  2  0
 27 28  1  0
 28 29  1  0
 29 30  2  0
 29 31  1  0
 31 32  1  0
 32 33  1  0
 33 34  1  0
 34 32  1  0
 27 35  1  0
 35 36  2  0
 36 24  1  0
 23 37  1  0
 37 38  2  0
 38 14  1  0
 38 11  1  0
 10 39  1  0
 39 40  1  0
 40  7  1  0
M  END
> <assay_chembl_id>
CHEMBL1104616

> <assay_description>
Antiproliferative activity against human LNCAP cells after 3 days by MTS assay

> <document_journal>
J Med Chem

> <molecule_chembl_id>
CHEMBL1097942

> <standard_value>
50

> <IC50_uM>
0.05

> <Activity>
Yes

> <Canonical_Smiles>
CC(C)OC(=O)N1CCC(n2ncc3c(N4CCOCC4)nc(-c4ccc(NC(=O)NC5CC5)cc4)nc32)CC1

$$$$

  SciTegic03142313312D

 41 46  0  0  0  0            999 V2000
    5.1855   -6.0062    0.0000 O   0  0
    6.4870   -5.2605    0.0000 C   0  0
    7.7840   -6.0157    0.0000 N   0  0
    7.7795   -7.5165    0.0000 C   0  0
    9.0765   -8.2716    0.0000 C   0  0
    9.0720   -9.7716    0.0000 F   0  0
    6.4915   -3.7597    0.0000 N   0  0
    5.1945   -3.0045    0.0000 C   0  0
    5.1969   -1.5045    0.0000 C   0  0
    3.8991   -0.7525    0.0000 C   0  0
    2.5987   -1.5004    0.0000 C   0  0
    1.2990   -0.7500    0.0000 C   0  0
    1.2990    0.7500    0.0000 N   0  0
    0.0000    1.5000    0.0000 C   0  0
    0.0000    3.0008    0.0000 N   0  0
    1.2978    3.7529    0.0000 C   0  0
    1.2954    5.2529    0.0000 C   0  0
   -0.0048    6.0009    0.0000 O   0  0
   -1.3026    5.2488    0.0000 C   0  0
   -1.3002    3.7488    0.0000 C   0  0
   -1.2990    0.7500    0.0000 C   0  0
   -2.7248    1.2135    0.0000 C   0  0
   -3.6065    0.0000    0.0000 N   0  0
   -2.7248   -1.2135    0.0000 N   0  0
   -3.1884   -2.6409    0.0000 C   0  0
   -4.6234   -3.0602    0.0000 C   0  0
   -4.9781   -4.5176    0.0000 C   0  0
   -3.8933   -5.5536    0.0000 N   0  0
   -4.2452   -7.0125    0.0000 C   0  0
   -3.1582   -8.0475    0.0000 C   0  0
   -3.5078   -9.5062    0.0000 C   0  0
   -2.4194  -10.5384    0.0000 C   0  0
   -0.9813  -10.1118    0.0000 C   0  0
   -0.6316   -8.6531    0.0000 C   0  0
   -1.7201   -7.6210    0.0000 C   0  0
   -2.4537   -5.1320    0.0000 C   0  0
   -2.0990   -3.6745    0.0000 C   0  0
   -1.2990   -0.7500    0.0000 C   0  0
    0.0000   -1.5000    0.0000 N   0  0
    2.5965   -3.0004    0.0000 C   0  0
    3.8943   -3.7525    0.0000 C   0  0
  1  2  2  0
  2  3  1  0
  3  4  1  0
  4  5  1  0
  5  6  1  0
  2  7  1  0
  7  8  1  0
  8  9  2  0
  9 10  1  0
 10 11  2  0
 11 12  1  0
 12 13  2  0
 13 14  1  0
 14 15  1  0
 15 16  1  0
 16 17  1  0
 17 18  1  0
 18 19  1  0
 19 20  1  0
 20 15  1  0
 14 21  2  0
 21 22  1  0
 22 23  2  0
 23 24  1  0
 24 25  1  0
 25 26  1  0
 26 27  1  0
 27 28  1  0
 28 29  1  0
 29 30  1  0
 30 31  2  0
 31 32  1  0
 32 33  2  0
 33 34  1  0
 34 35  2  0
 35 30  1  0
 28 36  1  0
 36 37  1  0
 37 25  1  0
 24 38  1  0
 38 21  1  0
 38 39  2  0
 39 12  1  0
 11 40  1  0
 40 41  2  0
 41  8  1  0
M  END
> <assay_chembl_id>
CHEMBL1104616

> <assay_description>
Antiproliferative activity against human LNCAP cells after 3 days by MTS assay

> <document_journal>
J Med Chem

> <molecule_chembl_id>
CHEMBL1097893

> <standard_value>
95

> <IC50_uM>
0.095

> <Activity>
Yes

> <Canonical_Smiles>
O=C(NCCF)Nc1ccc(-c2nc(N3CCOCC3)c3cnn(C4CCN(Cc5ccccc5)CC4)c3n2)cc1

$$$$

  SciTegic03142313312D

 43 48  0  0  0  0            999 V2000
   10.3683  -10.5272    0.0000 C   0  0
    9.0720   -9.7724    0.0000 N   0  0
    7.7705  -10.5181    0.0000 C   0  0
    9.0765   -8.2716    0.0000 C   0  0
    7.7795   -7.5165    0.0000 C   0  0
    7.7840   -6.0157    0.0000 N   0  0
    6.4870   -5.2605    0.0000 C   0  0
    5.1855   -6.0062    0.0000 O   0  0
    6.4915   -3.7597    0.0000 N   0  0
    5.1945   -3.0045    0.0000 C   0  0
    5.1969   -1.5045    0.0000 C   0  0
    3.8991   -0.7525    0.0000 C   0  0
    2.5987   -1.5004    0.0000 C   0  0
    1.2990   -0.7500    0.0000 C   0  0
    1.2990    0.7500    0.0000 N   0  0
    0.0000    1.5000    0.0000 C   0  0
    0.0000    3.0008    0.0000 N   0  0
    1.2978    3.7529    0.0000 C   0  0
    1.2954    5.2529    0.0000 C   0  0
   -0.0048    6.0009    0.0000 O   0  0
   -1.3026    5.2488    0.0000 C   0  0
   -1.3002    3.7488    0.0000 C   0  0
   -1.2990    0.7500    0.0000 C   0  0
   -2.7248    1.2135    0.0000 C   0  0
   -3.6065    0.0000    0.0000 N   0  0
   -2.7248   -1.2135    0.0000 N   0  0
   -3.1884   -2.6409    0.0000 C   0  0
   -4.6234   -3.0602    0.0000 C   0  0
   -4.9781   -4.5176    0.0000 C   0  0
   -3.8933   -5.5536    0.0000 N   0  0
   -4.2452   -7.0125    0.0000 C   0  0
   -3.1582   -8.0475    0.0000 C   0  0
   -3.5078   -9.5062    0.0000 C   0  0
   -2.4194  -10.5384    0.0000 C   0  0
   -0.9813  -10.1118    0.0000 C   0  0
   -0.6316   -8.6531    0.0000 C   0  0
   -1.7201   -7.6210    0.0000 C   0  0
   -2.4537   -5.1320    0.0000 C   0  0
   -2.0990   -3.6745    0.0000 C   0  0
   -1.2990   -0.7500    0.0000 C   0  0
    0.0000   -1.5000    0.0000 N   0  0
    2.5965   -3.0004    0.0000 C   0  0
    3.8943   -3.7525    0.0000 C   0  0
  1  2  1  0
  2  3  1  0
  2  4  1  0
  4  5  1  0
  5  6  1  0
  6  7  1  0
  7  8  2  0
  7  9  1  0
  9 10  1  0
 10 11  2  0
 11 12  1  0
 12 13  2  0
 13 14  1  0
 14 15  2  0
 15 16  1  0
 16 17  1  0
 17 18  1  0
 18 19  1  0
 19 20  1  0
 20 21  1  0
 21 22  1  0
 22 17  1  0
 16 23  2  0
 23 24  1  0
 24 25  2  0
 25 26  1  0
 26 27  1  0
 27 28  1  0
 28 29  1  0
 29 30  1  0
 30 31  1  0
 31 32  1  0
 32 33  2  0
 33 34  1  0
 34 35  2  0
 35 36  1  0
 36 37  2  0
 37 32  1  0
 30 38  1  0
 38 39  1  0
 39 27  1  0
 26 40  1  0
 40 23  1  0
 40 41  2  0
 41 14  1  0
 13 42  1  0
 42 43  2  0
 43 10  1  0
M  END
> <assay_chembl_id>
CHEMBL1104616

> <assay_description>
Antiproliferative activity against human LNCAP cells after 3 days by MTS assay

> <document_journal>
J Med Chem

> <molecule_chembl_id>
CHEMBL1097898

> <standard_value>
95

> <IC50_uM>
0.095

> <Activity>
Yes

> <Canonical_Smiles>
CN(C)CCNC(=O)Nc1ccc(-c2nc(N3CCOCC3)c3cnn(C4CCN(Cc5ccccc5)CC4)c3n2)cc1

$$$$

  SciTegic03142313312D

 41 45  0  0  0  0            999 V2000
   -7.9167   -7.3695    0.0000 C   0  0
   -6.4777   -7.7931    0.0000 C   0  0
   -6.1256   -9.2512    0.0000 C   0  0
   -7.5642   -8.8273    0.0000 C   0  0
   -5.3902   -6.7589    0.0000 O   0  0
   -3.9504   -7.1827    0.0000 C   0  0
   -3.5983   -8.6408    0.0000 O   0  0
   -2.8628   -6.1485    0.0000 N   0  0
   -1.4233   -6.5700    0.0000 C   0  0
   -0.3384   -5.5341    0.0000 C   0  0
   -0.6928   -4.0817    0.0000 C   0  0
    0.3114   -2.9665    0.0000 N   0  0
    1.8032   -3.1233    0.0000 N   0  0
    2.4133   -1.7530    0.0000 C   0  0
    1.2990   -0.7500    0.0000 C   0  0
    1.2990    0.7500    0.0000 C   0  0
    2.5987    1.5004    0.0000 N   0  0
    3.8991    0.7525    0.0000 C   0  0
    5.1969    1.5046    0.0000 C   0  0
    5.1945    3.0046    0.0000 O   0  0
    3.8943    3.7525    0.0000 C   0  0
    2.5964    3.0004    0.0000 C   0  0
    0.0000    1.5000    0.0000 N   0  0
   -1.2990    0.7500    0.0000 C   0  0
   -2.5987    1.5004    0.0000 C   0  0
   -2.6012    3.0004    0.0000 C   0  0
   -3.9015    3.7484    0.0000 C   0  0
   -5.1993    2.9963    0.0000 C   0  0
   -6.5018    3.7420    0.0000 N   0  0
   -7.7993    2.9876    0.0000 C   0  0
   -7.7943    1.4876    0.0000 O   0  0
   -9.1017    3.7333    0.0000 N   0  0
  -10.3992    2.9790    0.0000 C   0  0
  -11.7017    3.7246    0.0000 C   0  0
  -12.9985    2.9707    0.0000 F   0  0
   -5.1969    1.4963    0.0000 C   0  0
   -3.8967    0.7484    0.0000 C   0  0
   -1.2990   -0.7500    0.0000 N   0  0
    0.0000   -1.5000    0.0000 C   0  0
   -2.1327   -3.6551    0.0000 C   0  0
   -3.2175   -4.6910    0.0000 C   0  0
  1  2  1  0
  2  3  1  0
  2  4  1  0
  2  5  1  0
  5  6  1  0
  6  7  2  0
  6  8  1  0
  8  9  1  0
  9 10  1  0
 10 11  1  0
 11 12  1  0
 12 13  1  0
 13 14  2  0
 14 15  1  0
 15 16  2  0
 16 17  1  0
 17 18  1  0
 18 19  1  0
 19 20  1  0
 20 21  1  0
 21 22  1  0
 22 17  1  0
 16 23  1  0
 23 24  2  0
 24 25  1  0
 25 26  2  0
 26 27  1  0
 27 28  2  0
 28 29  1  0
 29 30  1  0
 30 31  2  0
 30 32  1  0
 32 33  1  0
 33 34  1  0
 34 35  1  0
 28 36  1  0
 36 37  2  0
 37 25  1  0
 24 38  1  0
 38 39  2  0
 39 15  1  0
 39 12  1  0
 11 40  1  0
 40 41  1  0
 41  8  1  0
M  END
> <assay_chembl_id>
CHEMBL1104616

> <assay_description>
Antiproliferative activity against human LNCAP cells after 3 days by MTS assay

> <document_journal>
J Med Chem

> <molecule_chembl_id>
CHEMBL1098242

> <standard_value>
110

> <IC50_uM>
0.11

> <Activity>
Yes

> <Canonical_Smiles>
CC(C)(C)OC(=O)N1CCC(n2ncc3c(N4CCOCC4)nc(-c4ccc(NC(=O)NCCF)cc4)nc32)CC1

$$$$

  SciTegic03142313312D

 41 46  0  0  0  0            999 V2000
   -7.9167   -7.3695    0.0000 C   0  0
   -6.4777   -7.7931    0.0000 C   0  0
   -6.1256   -9.2512    0.0000 C   0  0
   -7.5642   -8.8273    0.0000 C   0  0
   -5.3902   -6.7589    0.0000 O   0  0
   -3.9504   -7.1827    0.0000 C   0  0
   -3.5983   -8.6408    0.0000 O   0  0
   -2.8628   -6.1485    0.0000 N   0  0
   -1.4233   -6.5700    0.0000 C   0  0
   -0.3384   -5.5341    0.0000 C   0  0
   -0.6928   -4.0817    0.0000 C   0  0
    0.3114   -2.9665    0.0000 N   0  0
    1.8032   -3.1233    0.0000 N   0  0
    2.4133   -1.7530    0.0000 C   0  0
    1.2990   -0.7500    0.0000 C   0  0
    1.2990    0.7500    0.0000 C   0  0
    2.5987    1.5004    0.0000 N   0  0
    3.8991    0.7525    0.0000 C   0  0
    5.1969    1.5046    0.0000 C   0  0
    5.1945    3.0046    0.0000 O   0  0
    3.8943    3.7525    0.0000 C   0  0
    2.5964    3.0004    0.0000 C   0  0
    0.0000    1.5000    0.0000 N   0  0
   -1.2990    0.7500    0.0000 C   0  0
   -2.5987    1.5004    0.0000 C   0  0
   -2.6012    3.0004    0.0000 C   0  0
   -3.9015    3.7484    0.0000 C   0  0
   -5.1993    2.9963    0.0000 C   0  0
   -6.5018    3.7420    0.0000 N   0  0
   -7.7993    2.9876    0.0000 C   0  0
   -7.7943    1.4876    0.0000 O   0  0
   -9.1017    3.7333    0.0000 N   0  0
  -10.3992    2.9790    0.0000 C   0  0
  -11.8203    3.0174    0.0000 C   0  0
  -11.0636    1.7222    0.0000 C   0  0
   -5.1969    1.4963    0.0000 C   0  0
   -3.8967    0.7484    0.0000 C   0  0
   -1.2990   -0.7500    0.0000 N   0  0
    0.0000   -1.5000    0.0000 C   0  0
   -2.1327   -3.6551    0.0000 C   0  0
   -3.2175   -4.6910    0.0000 C   0  0
  1  2  1  0
  2  3  1  0
  2  4  1  0
  2  5  1  0
  5  6  1  0
  6  7  2  0
  6  8  1  0
  8  9  1  0
  9 10  1  0
 10 11  1  0
 11 12  1  0
 12 13  1  0
 13 14  2  0
 14 15  1  0
 15 16  2  0
 16 17  1  0
 17 18  1  0
 18 19  1  0
 19 20  1  0
 20 21  1  0
 21 22  1  0
 22 17  1  0
 16 23  1  0
 23 24  2  0
 24 25  1  0
 25 26  2  0
 26 27  1  0
 27 28  2  0
 28 29  1  0
 29 30  1  0
 30 31  2  0
 30 32  1  0
 32 33  1  0
 33 34  1  0
 34 35  1  0
 35 33  1  0
 28 36  1  0
 36 37  2  0
 37 25  1  0
 24 38  1  0
 38 39  2  0
 39 15  1  0
 39 12  1  0
 11 40  1  0
 40 41  1  0
 41  8  1  0
M  END
> <assay_chembl_id>
CHEMBL1104616

> <assay_description>
Antiproliferative activity against human LNCAP cells after 3 days by MTS assay

> <document_journal>
J Med Chem

> <molecule_chembl_id>
CHEMBL1098243

> <standard_value>
160

> <IC50_uM>
0.16

> <Activity>
Yes

> <Canonical_Smiles>
CC(C)(C)OC(=O)N1CCC(n2ncc3c(N4CCOCC4)nc(-c4ccc(NC(=O)NC5CC5)cc4)nc32)CC1

$$$$

  SciTegic03142313312D

 44 50  0  0  0  0            999 V2000
    5.1855   -6.0062    0.0000 O   0  0
    6.4870   -5.2605    0.0000 C   0  0
    6.4915   -3.7597    0.0000 N   0  0
    5.1945   -3.0045    0.0000 C   0  0
    5.1969   -1.5045    0.0000 C   0  0
    3.8991   -0.7525    0.0000 C   0  0
    2.5987   -1.5004    0.0000 C   0  0
    1.2990   -0.7500    0.0000 C   0  0
    1.2990    0.7500    0.0000 N   0  0
    0.0000    1.5000    0.0000 C   0  0
    0.0000    3.0008    0.0000 N   0  0
    1.2978    3.7529    0.0000 C   0  0
    1.2954    5.2529    0.0000 C   0  0
   -0.0048    6.0009    0.0000 O   0  0
   -1.3026    5.2488    0.0000 C   0  0
   -1.3002    3.7488    0.0000 C   0  0
   -1.2990    0.7500    0.0000 C   0  0
   -2.7248    1.2135    0.0000 C   0  0
   -3.6065    0.0000    0.0000 N   0  0
   -2.7248   -1.2135    0.0000 N   0  0
   -3.1884   -2.6409    0.0000 C   0  0
   -4.6234   -3.0602    0.0000 C   0  0
   -4.9781   -4.5176    0.0000 C   0  0
   -3.8933   -5.5536    0.0000 N   0  0
   -4.2452   -7.0125    0.0000 C   0  0
   -3.1582   -8.0475    0.0000 C   0  0
   -3.5078   -9.5062    0.0000 C   0  0
   -2.4194  -10.5384    0.0000 C   0  0
   -0.9813  -10.1118    0.0000 C   0  0
   -0.6316   -8.6531    0.0000 C   0  0
   -1.7201   -7.6210    0.0000 C   0  0
   -2.4537   -5.1320    0.0000 C   0  0
   -2.0990   -3.6745    0.0000 C   0  0
   -1.2990   -0.7500    0.0000 C   0  0
    0.0000   -1.5000    0.0000 N   0  0
    2.5965   -3.0004    0.0000 C   0  0
    3.8943   -3.7525    0.0000 C   0  0
    7.7840   -6.0157    0.0000 N   0  0
    7.7795   -7.5165    0.0000 C   0  0
    9.0747   -8.2731    0.0000 C   0  0
    9.0672   -9.7731    0.0000 C   0  0
    7.7644  -10.5165    0.0000 C   0  0
    6.4691   -9.7600    0.0000 N   0  0
    6.4767   -8.2600    0.0000 C   0  0
  1  2  2  0
  2  3  1  0
  3  4  1  0
  4  5  2  0
  5  6  1  0
  6  7  2  0
  7  8  1  0
  8  9  2  0
  9 10  1  0
 10 11  1  0
 11 12  1  0
 12 13  1  0
 13 14  1  0
 14 15  1  0
 15 16  1  0
 16 11  1  0
 10 17  2  0
 17 18  1  0
 18 19  2  0
 19 20  1  0
 20 21  1  0
 21 22  1  0
 22 23  1  0
 23 24  1  0
 24 25  1  0
 25 26  1  0
 26 27  2  0
 27 28  1  0
 28 29  2  0
 29 30  1  0
 30 31  2  0
 31 26  1  0
 24 32  1  0
 32 33  1  0
 33 21  1  0
 20 34  1  0
 34 17  1  0
 34 35  2  0
 35  8  1  0
  7 36  1  0
 36 37  2  0
 37  4  1  0
  2 38  1  0
 38 39  1  0
 39 40  2  0
 40 41  1  0
 41 42  2  0
 42 43  1  0
 43 44  2  0
 44 39  1  0
M  END
> <assay_chembl_id>
CHEMBL1104616

> <assay_description>
Antiproliferative activity against human LNCAP cells after 3 days by MTS assay

> <document_journal>
J Med Chem

> <molecule_chembl_id>
CHEMBL1097901

> <standard_value>
180

> <IC50_uM>
0.18

> <Activity>
Yes

> <Canonical_Smiles>
O=C(Nc1ccc(-c2nc(N3CCOCC3)c3cnn(C4CCN(Cc5ccccc5)CC4)c3n2)cc1)Nc1cccnc1

$$$$

  SciTegic03142313312D

 44 50  0  0  0  0            999 V2000
    5.1855   -6.0062    0.0000 O   0  0
    6.4870   -5.2605    0.0000 C   0  0
    7.7840   -6.0157    0.0000 N   0  0
    7.7795   -7.5165    0.0000 C   0  0
    9.0747   -8.2731    0.0000 C   0  0
    9.0672   -9.7731    0.0000 C   0  0
    7.7644  -10.5165    0.0000 C   0  0
    6.4691   -9.7600    0.0000 C   0  0
    6.4767   -8.2600    0.0000 C   0  0
    6.4915   -3.7597    0.0000 N   0  0
    5.1945   -3.0045    0.0000 C   0  0
    5.1969   -1.5045    0.0000 C   0  0
    3.8991   -0.7525    0.0000 C   0  0
    2.5987   -1.5004    0.0000 C   0  0
    1.2990   -0.7500    0.0000 C   0  0
    1.2990    0.7500    0.0000 N   0  0
    0.0000    1.5000    0.0000 C   0  0
    0.0000    3.0008    0.0000 N   0  0
    1.2978    3.7529    0.0000 C   0  0
    1.2954    5.2529    0.0000 C   0  0
   -0.0048    6.0009    0.0000 O   0  0
   -1.3026    5.2488    0.0000 C   0  0
   -1.3002    3.7488    0.0000 C   0  0
   -1.2990    0.7500    0.0000 C   0  0
   -2.7248    1.2135    0.0000 C   0  0
   -3.6065    0.0000    0.0000 N   0  0
   -2.7248   -1.2135    0.0000 N   0  0
   -3.1884   -2.6409    0.0000 C   0  0
   -4.6234   -3.0602    0.0000 C   0  0
   -4.9781   -4.5176    0.0000 C   0  0
   -3.8933   -5.5536    0.0000 N   0  0
   -4.2452   -7.0125    0.0000 C   0  0
   -3.1582   -8.0475    0.0000 C   0  0
   -3.5078   -9.5062    0.0000 C   0  0
   -2.4194  -10.5384    0.0000 C   0  0
   -0.9813  -10.1118    0.0000 C   0  0
   -0.6316   -8.6531    0.0000 C   0  0
   -1.7201   -7.6210    0.0000 C   0  0
   -2.4537   -5.1320    0.0000 C   0  0
   -2.0990   -3.6745    0.0000 C   0  0
   -1.2990   -0.7500    0.0000 C   0  0
    0.0000   -1.5000    0.0000 N   0  0
    2.5965   -3.0004    0.0000 C   0  0
    3.8943   -3.7525    0.0000 C   0  0
  1  2  2  0
  2  3  1  0
  3  4  1  0
  4  5  2  0
  5  6  1  0
  6  7  2  0
  7  8  1  0
  8  9  2  0
  9  4  1  0
  2 10  1  0
 10 11  1  0
 11 12  2  0
 12 13  1  0
 13 14  2  0
 14 15  1  0
 15 16  2  0
 16 17  1  0
 17 18  1  0
 18 19  1  0
 19 20  1  0
 20 21  1  0
 21 22  1  0
 22 23  1  0
 23 18  1  0
 17 24  2  0
 24 25  1  0
 25 26  2  0
 26 27  1  0
 27 28  1  0
 28 29  1  0
 29 30  1  0
 30 31  1  0
 31 32  1  0
 32 33  1  0
 33 34  2  0
 34 35  1  0
 35 36  2  0
 36 37  1  0
 37 38  2  0
 38 33  1  0
 31 39  1  0
 39 40  1  0
 40 28  1  0
 27 41  1  0
 41 24  1  0
 41 42  2  0
 42 15  1  0
 14 43  1  0
 43 44  2  0
 44 11  1  0
M  END
> <assay_chembl_id>
CHEMBL1104616

> <assay_description>
Antiproliferative activity against human LNCAP cells after 3 days by MTS assay

> <document_journal>
J Med Chem

> <molecule_chembl_id>
CHEMBL1097900

> <standard_value>
200

> <IC50_uM>
0.2

> <Activity>
Yes

> <Canonical_Smiles>
O=C(Nc1ccccc1)Nc1ccc(-c2nc(N3CCOCC3)c3cnn(C4CCN(Cc5ccccc5)CC4)c3n2)cc1

$$$$

  SciTegic03142313312D

 39 44  0  0  0  0            999 V2000
    7.7795   -7.5156    0.0000 C   0  0
    7.7840   -6.0157    0.0000 O   0  0
    6.4870   -5.2605    0.0000 C   0  0
    5.1855   -6.0062    0.0000 O   0  0
    6.4915   -3.7597    0.0000 N   0  0
    5.1945   -3.0045    0.0000 C   0  0
    5.1969   -1.5045    0.0000 C   0  0
    3.8991   -0.7525    0.0000 C   0  0
    2.5987   -1.5004    0.0000 C   0  0
    1.2990   -0.7500    0.0000 C   0  0
    1.2990    0.7500    0.0000 N   0  0
    0.0000    1.5000    0.0000 C   0  0
    0.0000    3.0008    0.0000 N   0  0
    1.2978    3.7529    0.0000 C   0  0
    1.2954    5.2529    0.0000 C   0  0
   -0.0048    6.0009    0.0000 O   0  0
   -1.3026    5.2488    0.0000 C   0  0
   -1.3002    3.7488    0.0000 C   0  0
   -1.2990    0.7500    0.0000 C   0  0
   -2.7248    1.2135    0.0000 C   0  0
   -3.6065    0.0000    0.0000 N   0  0
   -2.7248   -1.2135    0.0000 N   0  0
   -3.1884   -2.6409    0.0000 C   0  0
   -4.6234   -3.0602    0.0000 C   0  0
   -4.9781   -4.5176    0.0000 C   0  0
   -3.8933   -5.5536    0.0000 N   0  0
   -4.2452   -7.0125    0.0000 C   0  0
   -3.1582   -8.0475    0.0000 C   0  0
   -3.5078   -9.5062    0.0000 C   0  0
   -2.4194  -10.5384    0.0000 C   0  0
   -0.9813  -10.1118    0.0000 C   0  0
   -0.6316   -8.6531    0.0000 C   0  0
   -1.7201   -7.6210    0.0000 C   0  0
   -2.4537   -5.1320    0.0000 C   0  0
   -2.0990   -3.6745    0.0000 C   0  0
   -1.2990   -0.7500    0.0000 C   0  0
    0.0000   -1.5000    0.0000 N   0  0
    2.5965   -3.0004    0.0000 C   0  0
    3.8943   -3.7525    0.0000 C   0  0
  1  2  1  0
  2  3  1  0
  3  4  2  0
  3  5  1  0
  5  6  1  0
  6  7  2  0
  7  8  1  0
  8  9  2  0
  9 10  1  0
 10 11  2  0
 11 12  1  0
 12 13  1  0
 13 14  1  0
 14 15  1  0
 15 16  1  0
 16 17  1  0
 17 18  1  0
 18 13  1  0
 12 19  2  0
 19 20  1  0
 20 21  2  0
 21 22  1  0
 22 23  1  0
 23 24  1  0
 24 25  1  0
 25 26  1  0
 26 27  1  0
 27 28  1  0
 28 29  2  0
 29 30  1  0
 30 31  2  0
 31 32  1  0
 32 33  2  0
 33 28  1  0
 26 34  1  0
 34 35  1  0
 35 23  1  0
 22 36  1  0
 36 19  1  0
 36 37  2  0
 37 10  1  0
  9 38  1  0
 38 39  2  0
 39  6  1  0
M  END
> <assay_chembl_id>
CHEMBL1104616

> <assay_description>
Antiproliferative activity against human LNCAP cells after 3 days by MTS assay

> <document_journal>
J Med Chem

> <molecule_chembl_id>
CHEMBL1098301

> <standard_value>
500

> <IC50_uM>
0.5

> <Activity>
Yes

> <Canonical_Smiles>
COC(=O)Nc1ccc(-c2nc(N3CCOCC3)c3cnn(C4CCN(Cc5ccccc5)CC4)c3n2)cc1

$$$$

  SciTegic03142313312D

 40 45  0  0  0  0            999 V2000
    9.0758   -8.2712    0.0000 C   0  0
    7.7795   -7.5165    0.0000 O   0  0
    7.7840   -6.0157    0.0000 N   0  0
    6.4870   -5.2605    0.0000 C   0  0
    5.1855   -6.0062    0.0000 O   0  0
    6.4915   -3.7597    0.0000 N   0  0
    5.1945   -3.0045    0.0000 C   0  0
    5.1969   -1.5045    0.0000 C   0  0
    3.8991   -0.7525    0.0000 C   0  0
    2.5987   -1.5004    0.0000 C   0  0
    1.2990   -0.7500    0.0000 C   0  0
    1.2990    0.7500    0.0000 N   0  0
    0.0000    1.5000    0.0000 C   0  0
    0.0000    3.0008    0.0000 N   0  0
    1.2978    3.7529    0.0000 C   0  0
    1.2954    5.2529    0.0000 C   0  0
   -0.0048    6.0009    0.0000 O   0  0
   -1.3026    5.2488    0.0000 C   0  0
   -1.3002    3.7488    0.0000 C   0  0
   -1.2990    0.7500    0.0000 C   0  0
   -2.7248    1.2135    0.0000 C   0  0
   -3.6065    0.0000    0.0000 N   0  0
   -2.7248   -1.2135    0.0000 N   0  0
   -3.1884   -2.6409    0.0000 C   0  0
   -4.6234   -3.0602    0.0000 C   0  0
   -4.9781   -4.5176    0.0000 C   0  0
   -3.8933   -5.5536    0.0000 N   0  0
   -4.2452   -7.0125    0.0000 C   0  0
   -3.1582   -8.0475    0.0000 C   0  0
   -3.5078   -9.5062    0.0000 C   0  0
   -2.4194  -10.5384    0.0000 C   0  0
   -0.9813  -10.1118    0.0000 C   0  0
   -0.6316   -8.6531    0.0000 C   0  0
   -1.7201   -7.6210    0.0000 C   0  0
   -2.4537   -5.1320    0.0000 C   0  0
   -2.0990   -3.6745    0.0000 C   0  0
   -1.2990   -0.7500    0.0000 C   0  0
    0.0000   -1.5000    0.0000 N   0  0
    2.5965   -3.0004    0.0000 C   0  0
    3.8943   -3.7525    0.0000 C   0  0
  1  2  1  0
  2  3  1  0
  3  4  1  0
  4  5  2  0
  4  6  1  0
  6  7  1  0
  7  8  2  0
  8  9  1  0
  9 10  2  0
 10 11  1  0
 11 12  2  0
 12 13  1  0
 13 14  1  0
 14 15  1  0
 15 16  1  0
 16 17  1  0
 17 18  1  0
 18 19  1  0
 19 14  1  0
 13 20  2  0
 20 21  1  0
 21 22  2  0
 22 23  1  0
 23 24  1  0
 24 25  1  0
 25 26  1  0
 26 27  1  0
 27 28  1  0
 28 29  1  0
 29 30  2  0
 30 31  1  0
 31 32  2  0
 32 33  1  0
 33 34  2  0
 34 29  1  0
 27 35  1  0
 35 36  1  0
 36 24  1  0
 23 37  1  0
 37 20  1  0
 37 38  2  0
 38 11  1  0
 10 39  1  0
 39 40  2  0
 40  7  1  0
M  END
> <assay_chembl_id>
CHEMBL1104616

> <assay_description>
Antiproliferative activity against human LNCAP cells after 3 days by MTS assay

> <document_journal>
J Med Chem

> <molecule_chembl_id>
CHEMBL1095945

> <standard_value>
500

> <IC50_uM>
0.5

> <Activity>
Yes

> <Canonical_Smiles>
CONC(=O)Nc1ccc(-c2nc(N3CCOCC3)c3cnn(C4CCN(Cc5ccccc5)CC4)c3n2)cc1

$$$$

  SciTegic03142313312D

 40 45  0  0  0  0            999 V2000
    9.0758   -8.2712    0.0000 C   0  0
    7.7795   -7.5165    0.0000 O   0  0
    7.7840   -6.0157    0.0000 N   0  0
    6.4870   -5.2605    0.0000 C   0  0
    5.1855   -6.0062    0.0000 O   0  0
    6.4915   -3.7597    0.0000 N   0  0
    5.1945   -3.0045    0.0000 C   0  0
    5.1969   -1.5045    0.0000 C   0  0
    3.8991   -0.7525    0.0000 C   0  0
    2.5987   -1.5004    0.0000 C   0  0
    1.2990   -0.7500    0.0000 C   0  0
    1.2990    0.7500    0.0000 N   0  0
    0.0000    1.5000    0.0000 C   0  0
    0.0000    3.0008    0.0000 N   0  0
    1.2978    3.7529    0.0000 C   0  0
    1.2954    5.2529    0.0000 C   0  0
   -0.0048    6.0009    0.0000 O   0  0
   -1.3026    5.2488    0.0000 C   0  0
   -1.3002    3.7488    0.0000 C   0  0
   -1.2990    0.7500    0.0000 C   0  0
   -2.7248    1.2135    0.0000 C   0  0
   -3.6065    0.0000    0.0000 N   0  0
   -2.7248   -1.2135    0.0000 N   0  0
   -3.1884   -2.6409    0.0000 C   0  0
   -4.6234   -3.0602    0.0000 C   0  0
   -4.9781   -4.5176    0.0000 C   0  0
   -3.8933   -5.5536    0.0000 N   0  0
   -4.2452   -7.0125    0.0000 C   0  0
   -3.1582   -8.0475    0.0000 C   0  0
   -3.5078   -9.5062    0.0000 C   0  0
   -2.4194  -10.5384    0.0000 C   0  0
   -0.9813  -10.1118    0.0000 C   0  0
   -0.6316   -8.6531    0.0000 N   0  0
   -1.7201   -7.6210    0.0000 C   0  0
   -2.4537   -5.1320    0.0000 C   0  0
   -2.0990   -3.6745    0.0000 C   0  0
   -1.2990   -0.7500    0.0000 C   0  0
    0.0000   -1.5000    0.0000 N   0  0
    2.5965   -3.0004    0.0000 C   0  0
    3.8943   -3.7525    0.0000 C   0  0
  1  2  1  0
  2  3  1  0
  3  4  1  0
  4  5  2  0
  4  6  1  0
  6  7  1  0
  7  8  2  0
  8  9  1  0
  9 10  2  0
 10 11  1  0
 11 12  2  0
 12 13  1  0
 13 14  1  0
 14 15  1  0
 15 16  1  0
 16 17  1  0
 17 18  1  0
 18 19  1  0
 19 14  1  0
 13 20  2  0
 20 21  1  0
 21 22  2  0
 22 23  1  0
 23 24  1  0
 24 25  1  0
 25 26  1  0
 26 27  1  0
 27 28  1  0
 28 29  1  0
 29 30  2  0
 30 31  1  0
 31 32  2  0
 32 33  1  0
 33 34  2  0
 34 29  1  0
 27 35  1  0
 35 36  1  0
 36 24  1  0
 23 37  1  0
 37 20  1  0
 37 38  2  0
 38 11  1  0
 10 39  1  0
 39 40  2  0
 40  7  1  0
M  END
> <assay_chembl_id>
CHEMBL1104616

> <assay_description>
Antiproliferative activity against human LNCAP cells after 3 days by MTS assay

> <document_journal>
J Med Chem

> <molecule_chembl_id>
CHEMBL1095946

> <standard_value>
500

> <IC50_uM>
0.5

> <Activity>
Yes

> <Canonical_Smiles>
CONC(=O)Nc1ccc(-c2nc(N3CCOCC3)c3cnn(C4CCN(Cc5cccnc5)CC4)c3n2)cc1

$$$$

  SciTegic03142313312D

 41 46  0  0  0  0            999 V2000
    9.0758   -8.2712    0.0000 C   0  0
    7.7795   -7.5165    0.0000 C   0  0
    6.4780   -8.2621    0.0000 C   0  0
    7.7840   -6.0157    0.0000 N   0  0
    6.4870   -5.2605    0.0000 C   0  0
    5.1855   -6.0062    0.0000 O   0  0
    6.4915   -3.7597    0.0000 N   0  0
    5.1945   -3.0045    0.0000 C   0  0
    5.1969   -1.5045    0.0000 C   0  0
    3.8991   -0.7525    0.0000 C   0  0
    2.5987   -1.5004    0.0000 C   0  0
    1.2990   -0.7500    0.0000 C   0  0
    1.2990    0.7500    0.0000 N   0  0
    0.0000    1.5000    0.0000 C   0  0
    0.0000    3.0008    0.0000 N   0  0
    1.2978    3.7529    0.0000 C   0  0
    1.2954    5.2529    0.0000 C   0  0
   -0.0048    6.0009    0.0000 O   0  0
   -1.3026    5.2488    0.0000 C   0  0
   -1.3002    3.7488    0.0000 C   0  0
   -1.2990    0.7500    0.0000 C   0  0
   -2.7248    1.2135    0.0000 C   0  0
   -3.6065    0.0000    0.0000 N   0  0
   -2.7248   -1.2135    0.0000 N   0  0
   -3.1884   -2.6409    0.0000 C   0  0
   -4.6234   -3.0602    0.0000 C   0  0
   -4.9781   -4.5176    0.0000 C   0  0
   -3.8933   -5.5536    0.0000 N   0  0
   -4.2452   -7.0125    0.0000 C   0  0
   -3.1582   -8.0475    0.0000 C   0  0
   -3.5078   -9.5062    0.0000 C   0  0
   -2.4194  -10.5384    0.0000 C   0  0
   -0.9813  -10.1118    0.0000 C   0  0
   -0.6316   -8.6531    0.0000 C   0  0
   -1.7201   -7.6210    0.0000 C   0  0
   -2.4537   -5.1320    0.0000 C   0  0
   -2.0990   -3.6745    0.0000 C   0  0
   -1.2990   -0.7500    0.0000 C   0  0
    0.0000   -1.5000    0.0000 N   0  0
    2.5965   -3.0004    0.0000 C   0  0
    3.8943   -3.7525    0.0000 C   0  0
  1  2  1  0
  2  3  1  0
  2  4  1  0
  4  5  1  0
  5  6  2  0
  5  7  1  0
  7  8  1  0
  8  9  2  0
  9 10  1  0
 10 11  2  0
 11 12  1  0
 12 13  2  0
 13 14  1  0
 14 15  1  0
 15 16  1  0
 16 17  1  0
 17 18  1  0
 18 19  1  0
 19 20  1  0
 20 15  1  0
 14 21  2  0
 21 22  1  0
 22 23  2  0
 23 24  1  0
 24 25  1  0
 25 26  1  0
 26 27  1  0
 27 28  1  0
 28 29  1  0
 29 30  1  0
 30 31  2  0
 31 32  1  0
 32 33  2  0
 33 34  1  0
 34 35  2  0
 35 30  1  0
 28 36  1  0
 36 37  1  0
 37 25  1  0
 24 38  1  0
 38 21  1  0
 38 39  2  0
 39 12  1  0
 11 40  1  0
 40 41  2  0
 41  8  1  0
M  END
> <assay_chembl_id>
CHEMBL1104616

> <assay_description>
Antiproliferative activity against human LNCAP cells after 3 days by MTS assay

> <document_journal>
J Med Chem

> <molecule_chembl_id>
CHEMBL1097894

> <standard_value>
560

> <IC50_uM>
0.56

> <Activity>
Yes

> <Canonical_Smiles>
CC(C)NC(=O)Nc1ccc(-c2nc(N3CCOCC3)c3cnn(C4CCN(Cc5ccccc5)CC4)c3n2)cc1

$$$$

  SciTegic03142313312D

 42 47  0  0  0  0            999 V2000
   10.3683  -10.5272    0.0000 C   0  0
    9.0720   -9.7724    0.0000 O   0  0
    9.0765   -8.2716    0.0000 C   0  0
    7.7795   -7.5165    0.0000 C   0  0
    7.7840   -6.0157    0.0000 N   0  0
    6.4870   -5.2605    0.0000 C   0  0
    5.1855   -6.0062    0.0000 O   0  0
    6.4915   -3.7597    0.0000 N   0  0
    5.1945   -3.0045    0.0000 C   0  0
    5.1969   -1.5045    0.0000 C   0  0
    3.8991   -0.7525    0.0000 C   0  0
    2.5987   -1.5004    0.0000 C   0  0
    1.2990   -0.7500    0.0000 C   0  0
    1.2990    0.7500    0.0000 N   0  0
    0.0000    1.5000    0.0000 C   0  0
    0.0000    3.0008    0.0000 N   0  0
    1.2978    3.7529    0.0000 C   0  0
    1.2954    5.2529    0.0000 C   0  0
   -0.0048    6.0009    0.0000 O   0  0
   -1.3026    5.2488    0.0000 C   0  0
   -1.3002    3.7488    0.0000 C   0  0
   -1.2990    0.7500    0.0000 C   0  0
   -2.7248    1.2135    0.0000 C   0  0
   -3.6065    0.0000    0.0000 N   0  0
   -2.7248   -1.2135    0.0000 N   0  0
   -3.1884   -2.6409    0.0000 C   0  0
   -4.6234   -3.0602    0.0000 C   0  0
   -4.9781   -4.5176    0.0000 C   0  0
   -3.8933   -5.5536    0.0000 N   0  0
   -4.2452   -7.0125    0.0000 C   0  0
   -3.1582   -8.0475    0.0000 C   0  0
   -3.5078   -9.5062    0.0000 C   0  0
   -2.4194  -10.5384    0.0000 C   0  0
   -0.9813  -10.1118    0.0000 C   0  0
   -0.6316   -8.6531    0.0000 C   0  0
   -1.7201   -7.6210    0.0000 C   0  0
   -2.4537   -5.1320    0.0000 C   0  0
   -2.0990   -3.6745    0.0000 C   0  0
   -1.2990   -0.7500    0.0000 C   0  0
    0.0000   -1.5000    0.0000 N   0  0
    2.5965   -3.0004    0.0000 C   0  0
    3.8943   -3.7525    0.0000 C   0  0
  1  2  1  0
  2  3  1  0
  3  4  1  0
  4  5  1  0
  5  6  1  0
  6  7  2  0
  6  8  1  0
  8  9  1  0
  9 10  2  0
 10 11  1  0
 11 12  2  0
 12 13  1  0
 13 14  2  0
 14 15  1  0
 15 16  1  0
 16 17  1  0
 17 18  1  0
 18 19  1  0
 19 20  1  0
 20 21  1  0
 21 16  1  0
 15 22  2  0
 22 23  1  0
 23 24  2  0
 24 25  1  0
 25 26  1  0
 26 27  1  0
 27 28  1  0
 28 29  1  0
 29 30  1  0
 30 31  1  0
 31 32  2  0
 32 33  1  0
 33 34  2  0
 34 35  1  0
 35 36  2  0
 36 31  1  0
 29 37  1  0
 37 38  1  0
 38 26  1  0
 25 39  1  0
 39 22  1  0
 39 40  2  0
 40 13  1  0
 12 41  1  0
 41 42  2  0
 42  9  1  0
M  END
> <assay_chembl_id>
CHEMBL1104616

> <assay_description>
Antiproliferative activity against human LNCAP cells after 3 days by MTS assay

> <document_journal>
J Med Chem

> <molecule_chembl_id>
CHEMBL1097897

> <standard_value>
800

> <IC50_uM>
0.8

> <Activity>
Yes

> <Canonical_Smiles>
COCCNC(=O)Nc1ccc(-c2nc(N3CCOCC3)c3cnn(C4CCN(Cc5ccccc5)CC4)c3n2)cc1

$$$$

  SciTegic03142313312D

 35 39  0  0  0  0            999 V2000
   -7.9167   -7.3695    0.0000 C   0  0
   -6.4777   -7.7931    0.0000 C   0  0
   -6.1256   -9.2512    0.0000 C   0  0
   -7.5642   -8.8273    0.0000 C   0  0
   -5.3902   -6.7589    0.0000 O   0  0
   -3.9504   -7.1827    0.0000 C   0  0
   -3.5983   -8.6408    0.0000 O   0  0
   -2.8628   -6.1485    0.0000 N   0  0
   -1.4233   -6.5700    0.0000 C   0  0
   -0.3384   -5.5341    0.0000 C   0  0
   -0.6928   -4.0817    0.0000 C   0  0
    0.3114   -2.9665    0.0000 N   0  0
    1.8032   -3.1233    0.0000 N   0  0
    2.4133   -1.7530    0.0000 C   0  0
    1.2990   -0.7500    0.0000 C   0  0
    1.2990    0.7500    0.0000 C   0  0
    2.5987    1.5004    0.0000 N   0  0
    3.8991    0.7525    0.0000 C   0  0
    5.1969    1.5046    0.0000 C   0  0
    5.1945    3.0046    0.0000 O   0  0
    3.8943    3.7525    0.0000 C   0  0
    2.5964    3.0004    0.0000 C   0  0
    0.0000    1.5000    0.0000 N   0  0
   -1.2990    0.7500    0.0000 C   0  0
   -2.5987    1.5004    0.0000 C   0  0
   -2.6012    3.0004    0.0000 C   0  0
   -3.9015    3.7484    0.0000 C   0  0
   -5.1993    2.9963    0.0000 C   0  0
   -6.4995    3.7442    0.0000 N   0  0
   -5.1969    1.4963    0.0000 C   0  0
   -3.8967    0.7484    0.0000 C   0  0
   -1.2990   -0.7500    0.0000 N   0  0
    0.0000   -1.5000    0.0000 C   0  0
   -2.1327   -3.6551    0.0000 C   0  0
   -3.2175   -4.6910    0.0000 C   0  0
  1  2  1  0
  2  3  1  0
  2  4  1  0
  2  5  1  0
  5  6  1  0
  6  7  2  0
  6  8  1  0
  8  9  1  0
  9 10  1  0
 10 11  1  0
 11 12  1  0
 12 13  1  0
 13 14  2  0
 14 15  1  0
 15 16  2  0
 16 17  1  0
 17 18  1  0
 18 19  1  0
 19 20  1  0
 20 21  1  0
 21 22  1  0
 22 17  1  0
 16 23  1  0
 23 24  2  0
 24 25  1  0
 25 26  2  0
 26 27  1  0
 27 28  2  0
 28 29  1  0
 28 30  1  0
 30 31  2  0
 31 25  1  0
 24 32  1  0
 32 33  2  0
 33 15  1  0
 33 12  1  0
 11 34  1  0
 34 35  1  0
 35  8  1  0
M  END
> <assay_chembl_id>
CHEMBL1104616

> <assay_description>
Antiproliferative activity against human LNCAP cells after 3 days by MTS assay

> <document_journal>
J Med Chem

> <molecule_chembl_id>
CHEMBL1095627

> <standard_value>
3.4

> <IC50_uM>
0.0034

> <Activity>
Yes

> <Canonical_Smiles>
CC(C)(C)OC(=O)N1CCC(n2ncc3c(N4CCOCC4)nc(-c4ccc(N)cc4)nc32)CC1

$$$$

  SciTegic03142313312D

 32 36  0  0  0  0            999 V2000
   -6.4771   -7.7926    0.0000 C   0  0
   -5.3902   -6.7589    0.0000 O   0  0
   -3.9504   -7.1827    0.0000 C   0  0
   -3.5983   -8.6408    0.0000 O   0  0
   -2.8628   -6.1485    0.0000 N   0  0
   -1.4233   -6.5700    0.0000 C   0  0
   -0.3384   -5.5341    0.0000 C   0  0
   -0.6928   -4.0817    0.0000 C   0  0
    0.3114   -2.9665    0.0000 N   0  0
    1.8032   -3.1233    0.0000 N   0  0
    2.4133   -1.7530    0.0000 C   0  0
    1.2990   -0.7500    0.0000 C   0  0
    1.2990    0.7500    0.0000 C   0  0
    2.5987    1.5004    0.0000 N   0  0
    3.8991    0.7525    0.0000 C   0  0
    5.1969    1.5046    0.0000 C   0  0
    5.1945    3.0046    0.0000 O   0  0
    3.8943    3.7525    0.0000 C   0  0
    2.5964    3.0004    0.0000 C   0  0
    0.0000    1.5000    0.0000 N   0  0
   -1.2990    0.7500    0.0000 C   0  0
   -2.5987    1.5004    0.0000 C   0  0
   -2.6012    3.0004    0.0000 C   0  0
   -3.9015    3.7484    0.0000 C   0  0
   -5.1993    2.9963    0.0000 C   0  0
   -6.4995    3.7442    0.0000 N   0  0
   -5.1969    1.4963    0.0000 C   0  0
   -3.8967    0.7484    0.0000 C   0  0
   -1.2990   -0.7500    0.0000 N   0  0
    0.0000   -1.5000    0.0000 C   0  0
   -2.1327   -3.6551    0.0000 C   0  0
   -3.2175   -4.6910    0.0000 C   0  0
  1  2  1  0
  2  3  1  0
  3  4  2  0
  3  5  1  0
  5  6  1  0
  6  7  1  0
  7  8  1  0
  8  9  1  0
  9 10  1  0
 10 11  2  0
 11 12  1  0
 12 13  2  0
 13 14  1  0
 14 15  1  0
 15 16  1  0
 16 17  1  0
 17 18  1  0
 18 19  1  0
 19 14  1  0
 13 20  1  0
 20 21  2  0
 21 22  1  0
 22 23  2  0
 23 24  1  0
 24 25  2  0
 25 26  1  0
 25 27  1  0
 27 28  2  0
 28 22  1  0
 21 29  1  0
 29 30  2  0
 30 12  1  0
 30  9  1  0
  8 31  1  0
 31 32  1  0
 32  5  1  0
M  END
> <assay_chembl_id>
CHEMBL1104616

> <assay_description>
Antiproliferative activity against human LNCAP cells after 3 days by MTS assay

> <document_journal>
J Med Chem

> <molecule_chembl_id>
CHEMBL1095626

> <standard_value>
213

> <IC50_uM>
0.213

> <Activity>
Yes

> <Canonical_Smiles>
COC(=O)N1CCC(n2ncc3c(N4CCOCC4)nc(-c4ccc(N)cc4)nc32)CC1

$$$$

  SciTegic03142313312D

 29 32  0  0  0  0            999 V2000
    0.8871    6.8451    0.0000 C   0  0
    0.9904    5.3487    0.0000 C   0  0
    2.3380    4.6899    0.0000 C   0  0
    2.4412    3.1934    0.0000 C   0  0
    1.2001    2.3589    0.0000 C   0  0
    1.2045    0.8582    0.0000 N   0  0
    0.0000    0.0000    0.0000 C   0  0
   -1.4225    0.4760    0.0000 S   0  0
    0.4517   -1.4303    0.0000 N   0  0
   -0.4355   -2.6408    0.0000 C   0  0
    0.0590   -4.0515    0.0000 C   0  0
   -0.9195   -5.1884    0.0000 C   0  0
   -2.3934   -4.9094    0.0000 C   0  0
   -3.3724   -6.0469    0.0000 C   0  0
   -4.3509   -7.1837    0.0000 N   0  0
   -2.8887   -3.4935    0.0000 C   0  0
   -4.3633   -3.2144    0.0000 C   0  0
   -5.3425   -4.3506    0.0000 F   0  0
   -4.8581   -1.7983    0.0000 F   0  0
   -5.8370   -2.9347    0.0000 F   0  0
   -1.9101   -2.3566    0.0000 C   0  0
    1.9573   -1.4303    0.0000 C   0  0
    2.8382   -2.6444    0.0000 O   0  0
    2.4240    0.0000    0.0000 C   0  0
    3.1015    1.3400    0.0000 C   0  0
    4.4565    0.6474    0.0000 C   0  0
    3.7640   -0.6775    0.0000 C   0  0
   -0.1507    3.0146    0.0000 C   0  0
   -0.2539    4.5110    0.0000 C   0  0
  1  2  1  0
  2  3  2  0
  3  4  1  0
  4  5  2  0
  5  6  1  0
  6  7  1  0
  7  8  2  0
  7  9  1  0
  9 10  1  0
 10 11  2  0
 11 12  1  0
 12 13  2  0
 13 14  1  0
 14 15  3  0
 13 16  1  0
 16 17  1  0
 17 18  1  0
 17 19  1  0
 17 20  1  0
 16 21  2  0
 21 10  1  0
  9 22  1  0
 22 23  2  0
 22 24  1  0
 24  6  1  0
 24 25  1  0
 25 26  1  0
 26 27  1  0
 27 24  1  0
  5 28  1  0
 28 29  2  0
 29  2  1  0
M  END
> <assay_chembl_id>
CHEMBL1118289

> <assay_description>
Inhibition of prostate specific antigen expression in human LNCAP cells in presence of fetal bovine serum

> <document_journal>
J Med Chem

> <molecule_chembl_id>
CHEMBL1083376

> <standard_value>
124

> <IC50_uM>
0.124

> <Activity>
Yes

> <Canonical_Smiles>
Cc1ccc(N2C(=S)N(c3ccc(C#N)c(C(F)(F)F)c3)C(=O)C23CCC3)cc1

$$$$

  SciTegic03142313312D

 30 33  0  0  0  0            999 V2000
   -6.9512    2.8026    0.0000 N   0  0
   -5.5683    2.2216    0.0000 C   0  0
   -4.1846    1.6404    0.0000 C   0  0
   -3.9962    0.1522    0.0000 C   0  0
   -2.6133   -0.4287    0.0000 C   0  0
   -1.4232    0.4763    0.0000 C   0  0
    0.0000    0.0000    0.0000 N   0  0
    1.2045    0.8582    0.0000 C   0  0
    1.2001    2.3582    0.0000 O   0  0
    2.4240    0.0000    0.0000 C   0  0
    3.1015    1.3400    0.0000 C   0  0
    4.4565    0.6474    0.0000 C   0  0
    3.7640   -0.6775    0.0000 C   0  0
    1.9573   -1.4303    0.0000 N   0  0
    2.8386   -2.6450    0.0000 C   0  0
    2.3329   -4.0519    0.0000 C   0  0
    3.3024   -5.1965    0.0000 C   0  0
    4.7784   -4.9292    0.0000 C   0  0
    5.7508   -6.0725    0.0000 C   0  0
    7.2264   -5.8031    0.0000 O   0  0
    5.2849   -3.5174    0.0000 C   0  0
    4.3155   -2.3728    0.0000 C   0  0
    0.4517   -1.4303    0.0000 C   0  0
   -0.4350   -2.6402    0.0000 S   0  0
   -1.6071    1.9666    0.0000 C   0  0
   -2.9900    2.5476    0.0000 C   0  0
   -3.1785    4.0365    0.0000 C   0  0
   -1.9845    4.9445    0.0000 F   0  0
   -4.5616    4.6170    0.0000 F   0  0
   -3.3675    5.5245    0.0000 F   0  0
  1  2  3  0
  2  3  1  0
  3  4  2  0
  4  5  1  0
  5  6  2  0
  6  7  1  0
  7  8  1  0
  8  9  2  0
  8 10  1  0
 10 11  1  0
 11 12  1  0
 12 13  1  0
 13 10  1  0
 10 14  1  0
 14 15  1  0
 15 16  2  0
 16 17  1  0
 17 18  2  0
 18 19  1  0
 19 20  1  0
 18 21  1  0
 21 22  2  0
 22 15  1  0
 14 23  1  0
 23  7  1  0
 23 24  2  0
  6 25  1  0
 25 26  2  0
 26  3  1  0
 26 27  1  0
 27 28  1  0
 27 29  1  0
 27 30  1  0
M  END
> <assay_chembl_id>
CHEMBL1118289

> <assay_description>
Inhibition of prostate specific antigen expression in human LNCAP cells in presence of fetal bovine serum

> <document_journal>
J Med Chem

> <molecule_chembl_id>
CHEMBL1082431

> <standard_value>
200

> <IC50_uM>
0.2

> <Activity>
Yes

> <Canonical_Smiles>
N#Cc1ccc(N2C(=O)C3(CCC3)N(c3ccc(CO)cc3)C2=S)cc1C(F)(F)F

$$$$

  SciTegic03142313312D

 31 34  0  0  0  0            999 V2000
    2.1269    7.6856    0.0000 C   0  0
    0.8840    6.8457    0.0000 C   0  0  3  0  0  0
   -0.4645    7.5026    0.0000 O   0  0
    0.9904    5.3487    0.0000 C   0  0
    2.3380    4.6899    0.0000 C   0  0
    2.4412    3.1934    0.0000 C   0  0
    1.2001    2.3589    0.0000 C   0  0
    1.2045    0.8582    0.0000 N   0  0
    0.0000    0.0000    0.0000 C   0  0
   -1.4225    0.4760    0.0000 S   0  0
    0.4517   -1.4303    0.0000 N   0  0
   -0.4355   -2.6408    0.0000 C   0  0
    0.0590   -4.0515    0.0000 C   0  0
   -0.9195   -5.1884    0.0000 C   0  0
   -2.3934   -4.9094    0.0000 C   0  0
   -3.3724   -6.0469    0.0000 C   0  0
   -4.3509   -7.1837    0.0000 N   0  0
   -2.8887   -3.4935    0.0000 C   0  0
   -4.3633   -3.2144    0.0000 C   0  0
   -5.3425   -4.3506    0.0000 F   0  0
   -4.8581   -1.7983    0.0000 F   0  0
   -5.8370   -2.9347    0.0000 F   0  0
   -1.9101   -2.3566    0.0000 C   0  0
    1.9573   -1.4303    0.0000 C   0  0
    2.8382   -2.6444    0.0000 O   0  0
    2.4240    0.0000    0.0000 C   0  0
    3.1015    1.3400    0.0000 C   0  0
    4.4565    0.6474    0.0000 C   0  0
    3.7640   -0.6775    0.0000 C   0  0
   -0.1507    3.0146    0.0000 C   0  0
   -0.2539    4.5110    0.0000 C   0  0
  2  1  1  4
  2  3  1  0
  2  4  1  0
  4  5  2  0
  5  6  1  0
  6  7  2  0
  7  8  1  0
  8  9  1  0
  9 10  2  0
  9 11  1  0
 11 12  1  0
 12 13  2  0
 13 14  1  0
 14 15  2  0
 15 16  1  0
 16 17  3  0
 15 18  1  0
 18 19  1  0
 19 20  1  0
 19 21  1  0
 19 22  1  0
 18 23  2  0
 23 12  1  0
 11 24  1  0
 24 25  2  0
 24 26  1  0
 26  8  1  0
 26 27  1  0
 27 28  1  0
 28 29  1  0
 29 26  1  0
  7 30  1  0
 30 31  2  0
 31  4  1  0
M  END
> <assay_chembl_id>
CHEMBL1118289

> <assay_description>
Inhibition of prostate specific antigen expression in human LNCAP cells in presence of fetal bovine serum

> <document_journal>
J Med Chem

> <molecule_chembl_id>
CHEMBL1084539

> <standard_value>
200

> <IC50_uM>
0.2

> <Activity>
Yes

> <Canonical_Smiles>
CC(O)c1ccc(N2C(=S)N(c3ccc(C#N)c(C(F)(F)F)c3)C(=O)C23CCC3)cc1

$$$$

  SciTegic03142313312D

 30 33  0  0  0  0            999 V2000
   -6.9512    2.8026    0.0000 N   0  0
   -5.5683    2.2216    0.0000 C   0  0
   -4.1846    1.6404    0.0000 C   0  0
   -3.9962    0.1522    0.0000 C   0  0
   -2.6133   -0.4287    0.0000 C   0  0
   -1.4232    0.4763    0.0000 C   0  0
    0.0000    0.0000    0.0000 N   0  0
    1.2045    0.8582    0.0000 C   0  0
    1.2001    2.3582    0.0000 O   0  0
    2.4240    0.0000    0.0000 C   0  0
    3.1015    1.3400    0.0000 C   0  0
    4.4565    0.6474    0.0000 C   0  0
    3.7640   -0.6775    0.0000 C   0  0
    1.9573   -1.4303    0.0000 N   0  0
    2.8386   -2.6450    0.0000 C   0  0
    2.3329   -4.0519    0.0000 C   0  0
    3.3024   -5.1965    0.0000 C   0  0
    4.7784   -4.9292    0.0000 C   0  0
    5.7508   -6.0725    0.0000 C   0  0
    7.2264   -5.8031    0.0000 O   0  0
    5.2849   -3.5174    0.0000 C   0  0
    4.3155   -2.3728    0.0000 C   0  0
    0.4517   -1.4303    0.0000 C   0  0
   -0.4350   -2.6402    0.0000 S   0  0
   -1.6071    1.9666    0.0000 C   0  0
   -2.9900    2.5476    0.0000 C   0  0
   -3.1785    4.0365    0.0000 C   0  0
   -1.9845    4.9445    0.0000 F   0  0
   -4.5616    4.6170    0.0000 F   0  0
   -3.3675    5.5245    0.0000 F   0  0
  1  2  3  0
  2  3  1  0
  3  4  2  0
  4  5  1  0
  5  6  2  0
  6  7  1  0
  7  8  1  0
  8  9  2  0
  8 10  1  0
 10 11  1  0
 11 12  1  0
 12 13  1  0
 13 10  1  0
 10 14  1  0
 14 15  1  0
 15 16  2  0
 16 17  1  0
 17 18  2  0
 18 19  1  0
 19 20  2  0
 18 21  1  0
 21 22  2  0
 22 15  1  0
 14 23  1  0
 23  7  1  0
 23 24  2  0
  6 25  1  0
 25 26  2  0
 26  3  1  0
 26 27  1  0
 27 28  1  0
 27 29  1  0
 27 30  1  0
M  END
> <assay_chembl_id>
CHEMBL1118289

> <assay_description>
Inhibition of prostate specific antigen expression in human LNCAP cells in presence of fetal bovine serum

> <document_journal>
J Med Chem

> <molecule_chembl_id>
CHEMBL1082432

> <standard_value>
200

> <IC50_uM>
0.2

> <Activity>
Yes

> <Canonical_Smiles>
N#Cc1ccc(N2C(=O)C3(CCC3)N(c3ccc(C=O)cc3)C2=S)cc1C(F)(F)F

$$$$

  SciTegic03142313312D

 33 36  0  0  0  0            999 V2000
   -6.9512    2.8026    0.0000 N   0  0
   -5.5683    2.2216    0.0000 C   0  0
   -4.1846    1.6404    0.0000 C   0  0
   -3.9962    0.1522    0.0000 C   0  0
   -2.6133   -0.4287    0.0000 C   0  0
   -1.4232    0.4763    0.0000 C   0  0
    0.0000    0.0000    0.0000 N   0  0
    1.2045    0.8582    0.0000 C   0  0
    1.2001    2.3582    0.0000 O   0  0
    2.4240    0.0000    0.0000 C   0  0
    3.1015    1.3400    0.0000 C   0  0
    4.4565    0.6474    0.0000 C   0  0
    3.7640   -0.6775    0.0000 C   0  0
    1.9573   -1.4303    0.0000 N   0  0
    2.8386   -2.6450    0.0000 C   0  0
    2.3329   -4.0519    0.0000 C   0  0
    3.3024   -5.1965    0.0000 C   0  0
    4.7784   -4.9292    0.0000 C   0  0
    5.7508   -6.0725    0.0000 C   0  0
    7.2272   -5.8029    0.0000 C   0  0
    8.1996   -6.9462    0.0000 C   0  0
    7.6955   -8.3590    0.0000 N   0  0
    9.6752   -6.6768    0.0000 O   0  0
    5.2849   -3.5174    0.0000 C   0  0
    4.3155   -2.3728    0.0000 C   0  0
    0.4517   -1.4303    0.0000 C   0  0
   -0.4350   -2.6402    0.0000 S   0  0
   -1.6071    1.9666    0.0000 C   0  0
   -2.9900    2.5476    0.0000 C   0  0
   -3.1785    4.0365    0.0000 C   0  0
   -1.9845    4.9445    0.0000 F   0  0
   -4.5616    4.6170    0.0000 F   0  0
   -3.3675    5.5245    0.0000 F   0  0
  1  2  3  0
  2  3  1  0
  3  4  2  0
  4  5  1  0
  5  6  2  0
  6  7  1  0
  7  8  1  0
  8  9  2  0
  8 10  1  0
 10 11  1  0
 11 12  1  0
 12 13  1  0
 13 10  1  0
 10 14  1  0
 14 15  1  0
 15 16  2  0
 16 17  1  0
 17 18  2  0
 18 19  1  0
 19 20  2  0
 20 21  1  0
 21 22  1  0
 21 23  2  0
 18 24  1  0
 24 25  2  0
 25 15  1  0
 14 26  1  0
 26  7  1  0
 26 27  2  0
  6 28  1  0
 28 29  2  0
 29  3  1  0
 29 30  1  0
 30 31  1  0
 30 32  1  0
 30 33  1  0
M  END
> <assay_chembl_id>
CHEMBL1118289

> <assay_description>
Inhibition of prostate specific antigen expression in human LNCAP cells in presence of fetal bovine serum

> <document_journal>
J Med Chem

> <molecule_chembl_id>
CHEMBL1084782

> <standard_value>
100

> <IC50_uM>
0.1

> <Activity>
Yes

> <Canonical_Smiles>
N#Cc1ccc(N2C(=O)C3(CCC3)N(c3ccc(/C=C/C(N)=O)cc3)C2=S)cc1C(F)(F)F

$$$$

  SciTegic03142313312D

 32 35  0  0  0  0            999 V2000
   -6.9512    2.8026    0.0000 N   0  0
   -5.5683    2.2216    0.0000 C   0  0
   -4.1846    1.6404    0.0000 C   0  0
   -3.9962    0.1522    0.0000 C   0  0
   -2.6133   -0.4287    0.0000 C   0  0
   -1.4232    0.4763    0.0000 C   0  0
    0.0000    0.0000    0.0000 N   0  0
    1.2045    0.8582    0.0000 C   0  0
    1.2001    2.3582    0.0000 O   0  0
    2.4240    0.0000    0.0000 C   0  0
    3.1015    1.3400    0.0000 C   0  0
    4.4565    0.6474    0.0000 C   0  0
    3.7640   -0.6775    0.0000 C   0  0
    1.9573   -1.4303    0.0000 N   0  0
    2.8386   -2.6450    0.0000 C   0  0
    2.3329   -4.0519    0.0000 C   0  0
    3.3024   -5.1965    0.0000 C   0  0
    4.7784   -4.9292    0.0000 C   0  0
    5.7508   -6.0725    0.0000 C   0  0
    7.2272   -5.8029    0.0000 C   0  0
    8.1996   -6.9462    0.0000 C   0  0
    9.6752   -6.6768    0.0000 O   0  0
    5.2849   -3.5174    0.0000 C   0  0
    4.3155   -2.3728    0.0000 C   0  0
    0.4517   -1.4303    0.0000 C   0  0
   -0.4350   -2.6402    0.0000 S   0  0
   -1.6071    1.9666    0.0000 C   0  0
   -2.9900    2.5476    0.0000 C   0  0
   -3.1785    4.0365    0.0000 C   0  0
   -1.9845    4.9445    0.0000 F   0  0
   -4.5616    4.6170    0.0000 F   0  0
   -3.3675    5.5245    0.0000 F   0  0
  1  2  3  0
  2  3  1  0
  3  4  2  0
  4  5  1  0
  5  6  2  0
  6  7  1  0
  7  8  1  0
  8  9  2  0
  8 10  1  0
 10 11  1  0
 11 12  1  0
 12 13  1  0
 13 10  1  0
 10 14  1  0
 14 15  1  0
 15 16  2  0
 16 17  1  0
 17 18  2  0
 18 19  1  0
 19 20  2  0
 20 21  1  0
 21 22  1  0
 18 23  1  0
 23 24  2  0
 24 15  1  0
 14 25  1  0
 25  7  1  0
 25 26  2  0
  6 27  1  0
 27 28  2  0
 28  3  1  0
 28 29  1  0
 29 30  1  0
 29 31  1  0
 29 32  1  0
M  END
> <assay_chembl_id>
CHEMBL1118289

> <assay_description>
Inhibition of prostate specific antigen expression in human LNCAP cells in presence of fetal bovine serum

> <document_journal>
J Med Chem

> <molecule_chembl_id>
CHEMBL1084783

> <standard_value>
100

> <IC50_uM>
0.1

> <Activity>
Yes

> <Canonical_Smiles>
N#Cc1ccc(N2C(=O)C3(CCC3)N(c3ccc(/C=C/CO)cc3)C2=S)cc1C(F)(F)F

$$$$

  SciTegic03142313312D

 35 38  0  0  0  0            999 V2000
   -3.3758   11.8112    0.0000 C   0  0
   -2.0273   11.1543    0.0000 N   0  0
   -1.9209    9.6573    0.0000 C   0  0
   -3.1638    8.8175    0.0000 O   0  0
   -0.5717    9.0000    0.0000 C   0  0
   -0.4653    7.5030    0.0000 C   0  0
    0.8840    6.8457    0.0000 C   0  0
    0.9904    5.3487    0.0000 C   0  0
    2.3380    4.6899    0.0000 C   0  0
    2.4412    3.1934    0.0000 C   0  0
    1.2001    2.3589    0.0000 C   0  0
    1.2045    0.8582    0.0000 N   0  0
    0.0000    0.0000    0.0000 C   0  0
   -1.4225    0.4760    0.0000 S   0  0
    0.4517   -1.4303    0.0000 N   0  0
   -0.4355   -2.6408    0.0000 C   0  0
    0.0590   -4.0515    0.0000 C   0  0
   -0.9195   -5.1884    0.0000 C   0  0
   -2.3934   -4.9094    0.0000 C   0  0
   -3.3724   -6.0469    0.0000 C   0  0
   -4.3509   -7.1837    0.0000 N   0  0
   -2.8887   -3.4935    0.0000 C   0  0
   -4.3633   -3.2144    0.0000 C   0  0
   -5.3425   -4.3506    0.0000 F   0  0
   -4.8581   -1.7983    0.0000 F   0  0
   -5.8370   -2.9347    0.0000 F   0  0
   -1.9101   -2.3566    0.0000 C   0  0
    1.9573   -1.4303    0.0000 C   0  0
    2.8382   -2.6444    0.0000 O   0  0
    2.4240    0.0000    0.0000 C   0  0
    3.1015    1.3400    0.0000 C   0  0
    4.4565    0.6474    0.0000 C   0  0
    3.7640   -0.6775    0.0000 C   0  0
   -0.1507    3.0146    0.0000 C   0  0
   -0.2539    4.5110    0.0000 C   0  0
  1  2  1  0
  2  3  1  0
  3  4  2  0
  3  5  1  0
  5  6  1  0
  6  7  1  0
  7  8  1  0
  8  9  2  0
  9 10  1  0
 10 11  2  0
 11 12  1  0
 12 13  1  0
 13 14  2  0
 13 15  1  0
 15 16  1  0
 16 17  2  0
 17 18  1  0
 18 19  2  0
 19 20  1  0
 20 21  3  0
 19 22  1  0
 22 23  1  0
 23 24  1  0
 23 25  1  0
 23 26  1  0
 22 27  2  0
 27 16  1  0
 15 28  1  0
 28 29  2  0
 28 30  1  0
 30 12  1  0
 30 31  1  0
 31 32  1  0
 32 33  1  0
 33 30  1  0
 11 34  1  0
 34 35  2  0
 35  8  1  0
M  END
> <assay_chembl_id>
CHEMBL1118293

> <assay_description>
Inhibition of prostate specific antigen secretion in human LNCAP cells expressing androgen receptor in presence of charcoal stripped serum

> <document_journal>
J Med Chem

> <molecule_chembl_id>
CHEMBL1083391

> <standard_value>
92

> <IC50_uM>
0.092

> <Activity>
Yes

> <Canonical_Smiles>
CNC(=O)CCCc1ccc(N2C(=S)N(c3ccc(C#N)c(C(F)(F)F)c3)C(=O)C23CCC3)cc1

$$$$

  SciTegic03142313312D

 33 36  0  0  0  0            999 V2000
    2.0362    9.1792    0.0000 C   0  0
    2.1364    7.6825    0.0000 N   0  0
    0.8902    6.8462    0.0000 C   0  0
   -0.4563    7.5073    0.0000 O   0  0
    0.9904    5.3487    0.0000 C   0  0
    2.3380    4.6899    0.0000 C   0  0
    2.4412    3.1934    0.0000 C   0  0
    1.2001    2.3589    0.0000 C   0  0
    1.2045    0.8582    0.0000 N   0  0
    0.0000    0.0000    0.0000 C   0  0
   -1.4225    0.4760    0.0000 S   0  0
    0.4517   -1.4303    0.0000 N   0  0
   -0.4355   -2.6408    0.0000 C   0  0
    0.0590   -4.0515    0.0000 C   0  0
   -0.9195   -5.1884    0.0000 C   0  0
   -2.3934   -4.9094    0.0000 C   0  0
   -3.3724   -6.0469    0.0000 C   0  0
   -4.3509   -7.1837    0.0000 N   0  0
   -2.8887   -3.4935    0.0000 C   0  0
   -4.3633   -3.2144    0.0000 C   0  0
   -5.3425   -4.3506    0.0000 F   0  0
   -4.8581   -1.7983    0.0000 F   0  0
   -5.8370   -2.9347    0.0000 F   0  0
   -1.9101   -2.3566    0.0000 C   0  0
    1.9573   -1.4303    0.0000 C   0  0
    2.8382   -2.6444    0.0000 O   0  0
    2.4240    0.0000    0.0000 C   0  0
    3.1015    1.3400    0.0000 C   0  0
    4.4565    0.6474    0.0000 C   0  0
    3.7640   -0.6775    0.0000 C   0  0
   -0.1507    3.0146    0.0000 C   0  0
   -0.2539    4.5110    0.0000 C   0  0
   -1.6015    5.1698    0.0000 F   0  0
  1  2  1  0
  2  3  1  0
  3  4  2  0
  3  5  1  0
  5  6  2  0
  6  7  1  0
  7  8  2  0
  8  9  1  0
  9 10  1  0
 10 11  2  0
 10 12  1  0
 12 13  1  0
 13 14  2  0
 14 15  1  0
 15 16  2  0
 16 17  1  0
 17 18  3  0
 16 19  1  0
 19 20  1  0
 20 21  1  0
 20 22  1  0
 20 23  1  0
 19 24  2  0
 24 13  1  0
 12 25  1  0
 25 26  2  0
 25 27  1  0
 27  9  1  0
 27 28  1  0
 28 29  1  0
 29 30  1  0
 30 27  1  0
  8 31  1  0
 31 32  2  0
 32  5  1  0
 32 33  1  0
M  END
> <assay_chembl_id>
CHEMBL1118289

> <assay_description>
Inhibition of prostate specific antigen expression in human LNCAP cells in presence of fetal bovine serum

> <document_journal>
J Med Chem

> <molecule_chembl_id>
CHEMBL1082410

> <standard_value>
122

> <IC50_uM>
0.122

> <Activity>
Yes

> <Canonical_Smiles>
CNC(=O)c1ccc(N2C(=S)N(c3ccc(C#N)c(C(F)(F)F)c3)C(=O)C23CCC3)cc1F

$$$$

  SciTegic03142313312D

 29 30  0  0  1  0            999 V2000
    5.1983   -3.0012    0.0000 C   0  0
    5.1988   -1.5012    0.0000 C   0  0  2  0  0  0
    5.1992   -0.0012    0.0000 O   0  0
    3.8990   -0.7508    0.0000 C   0  0
    2.5988   -1.5004    0.0000 S   0  0
    2.5983   -3.0004    0.0000 O   0  0
    3.8975   -2.2510    0.0000 O   0  0
    1.2990   -0.7500    0.0000 C   0  0
    1.2990    0.7500    0.0000 C   0  0
    0.0000    1.5000    0.0000 C   0  0
   -1.2990    0.7500    0.0000 C   0  0
   -2.5981    1.5000    0.0000 F   0  0
   -1.2990   -0.7500    0.0000 C   0  0
    0.0000   -1.5000    0.0000 C   0  0
    6.4990   -0.7516    0.0000 C   0  0
    6.4995    0.7484    0.0000 O   0  0
    7.7988   -1.5020    0.0000 N   0  0
    9.0990   -0.7525    0.0000 C   0  0
   10.3991   -1.5006    0.0000 C   0  0
   11.6971   -0.7487    0.0000 C   0  0
   11.6950    0.7512    0.0000 C   0  0
   12.9937    1.5035    0.0000 C   0  0
   14.2917    2.2553    0.0000 N   0  0
   10.3949    1.4994    0.0000 C   0  0
   10.3928    3.0003    0.0000 C   0  0
   11.6903    3.7529    0.0000 F   0  0
    9.0925    3.7480    0.0000 F   0  0
   10.3900    4.5002    0.0000 F   0  0
    9.0969    0.7476    0.0000 C   0  0
  2  1  1  1
  2  3  1  0
  2  4  1  0
  4  5  1  0
  5  6  2  0
  5  7  2  0
  5  8  1  0
  8  9  2  0
  9 10  1  0
 10 11  2  0
 11 12  1  0
 11 13  1  0
 13 14  2  0
 14  8  1  0
  2 15  1  0
 15 16  2  0
 15 17  1  0
 17 18  1  0
 18 19  2  0
 19 20  1  0
 20 21  2  0
 21 22  1  0
 22 23  3  0
 21 24  1  0
 24 25  1  0
 25 26  1  0
 25 27  1  0
 25 28  1  0
 24 29  2  0
 29 18  1  0
M  END
> <assay_chembl_id>
CHEMBL1176968

> <assay_description>
Growth inhibition of human LNCAP cells after 3 days

> <document_journal>
J Med Chem

> <molecule_chembl_id>
CHEMBL63560

> <standard_value>
870

> <IC50_uM>
0.87

> <Activity>
Yes

> <Canonical_Smiles>
C[C@](O)(CS(=O)(=O)c1ccc(F)cc1)C(=O)Nc1ccc(C#N)c(C(F)(F)F)c1

$$$$

  SciTegic03142313312D

 36 37  0  0  0  0            999 V2000
   -0.0088  -12.0119    0.0000 C   0  0
   -0.0083  -10.5119    0.0000 C   0  0
    1.2912   -9.7611    0.0000 O   0  0
    1.2917   -8.2603    0.0000 C   0  0
   -0.0074   -7.5103    0.0000 O   0  0
    2.5912   -7.5095    0.0000 C   0  0
    2.5917   -6.0086    0.0000 C   0  0
    3.8912   -5.2578    0.0000 C   0  0
    3.8933   -3.7570    0.0000 C   0  0
    5.1937   -3.0093    0.0000 O   0  0
    2.5951   -3.0039    0.0000 C   0  0
    2.5973   -1.5031    0.0000 C   0  0
    1.2990   -0.7500    0.0000 C   0  0
    1.2990    0.7500    0.0000 C   0  0
    0.0000    1.5000    0.0000 C   0  0
   -1.2990    0.7500    0.0000 C   0  0
   -2.5973    1.5031    0.0000 O   0  0
   -2.5951    3.0031    0.0000 C   0  0
   -1.2990   -0.7500    0.0000 C   0  0
   -2.5972   -1.5031    0.0000 O   0  0
   -2.5951   -3.0031    0.0000 C   0  0
    0.0000   -1.5000    0.0000 C   0  0
    5.1894   -6.0109    0.0000 C   0  0
    6.4897   -5.2632    0.0000 O   0  0
    5.1873   -7.5117    0.0000 C   0  0
    6.4855   -8.2648    0.0000 C   0  0
    6.4833   -9.7656    0.0000 C   0  0
    7.7798  -10.5202    0.0000 C   0  0
    7.7746  -12.0202    0.0000 C   0  0
    6.4729  -12.7657    0.0000 C   0  0
    6.4708  -14.2665    0.0000 O   0  0
    7.7684  -15.0192    0.0000 C   0  0
    5.1765  -12.0112    0.0000 C   0  0
    3.8726  -12.7545    0.0000 O   0  0
    2.5773  -11.9981    0.0000 C   0  0
    5.1817  -10.5112    0.0000 C   0  0
  1  2  1  0
  2  3  1  0
  3  4  1  0
  4  5  2  0
  4  6  1  0
  6  7  2  0
  7  8  1  0
  8  9  1  0
  9 10  2  0
  9 11  1  0
 11 12  2  0
 12 13  1  0
 13 14  2  0
 14 15  1  0
 15 16  2  0
 16 17  1  0
 17 18  1  0
 16 19  1  0
 19 20  1  0
 20 21  1  0
 19 22  2  0
 22 13  1  0
  8 23  2  0
 23 24  1  0
 23 25  1  0
 25 26  2  0
 26 27  1  0
 27 28  2  0
 28 29  1  0
 29 30  2  0
 30 31  1  0
 31 32  1  0
 30 33  1  0
 33 34  1  0
 34 35  1  0
 33 36  2  0
 36 27  1  0
M  END
> <assay_chembl_id>
CHEMBL1175940

> <assay_description>
Cytotoxicity against human LNCAP cells after 2 days

> <document_journal>
J Nat Prod

> <molecule_chembl_id>
CHEMBL1172583

> <standard_value>
200

> <IC50_uM>
0.2

> <Activity>
Yes

> <Canonical_Smiles>
CCOC(=O)/C=C/C(C(=O)/C=C/c1ccc(OC)c(OC)c1)=C(O)\C=C\c1ccc(OC)c(OC)c1

$$$$

  SciTegic03142313312D

 21 24  0  0  0  0            999 V2000
   -8.8453   -5.5495    0.0000 Cl  0  0
   -7.3477   -5.4660    0.0000 C   0  0
   -6.5265   -6.7213    0.0000 C   0  0
   -5.0288   -6.6378    0.0000 C   0  0
   -4.3554   -5.3030    0.0000 C   0  0
   -2.8675   -5.1069    0.0000 C   0  0
   -1.8348   -6.1949    0.0000 N   0  0
   -0.4810   -5.5489    0.0000 N   0  0
   -0.6928   -4.0817    0.0000 C   0  0
    0.3114   -2.9665    0.0000 C   0  0
    1.8032   -3.1233    0.0000 C   0  0
    2.4133   -1.7530    0.0000 N   0  0
    1.2990   -0.7500    0.0000 C   0  0
    1.2990    0.7500    0.0000 C   0  0
    0.0000    1.5000    0.0000 C   0  0
   -1.2990    0.7500    0.0000 C   0  0
   -1.2990   -0.7500    0.0000 C   0  0
    0.0000   -1.5000    0.0000 C   0  0
   -2.1519   -3.7886    0.0000 S   0  0
   -5.1735   -4.0437    0.0000 C   0  0
   -6.6712   -4.1272    0.0000 C   0  0
  1  2  1  0
  2  3  2  0
  3  4  1  0
  4  5  2  0
  5  6  1  0
  6  7  2  0
  7  8  1  0
  8  9  2  0
  9 10  1  0
 10 11  2  0
 11 12  1  0
 12 13  1  0
 13 14  2  0
 14 15  1  0
 15 16  2  0
 16 17  1  0
 17 18  2  0
 18 10  1  0
 18 13  1  0
  9 19  1  0
 19  6  1  0
  5 20  1  0
 20 21  2  0
 21  2  1  0
M  END
> <assay_chembl_id>
CHEMBL1250828

> <assay_description>
Cytotoxicity against human LNCAP cells after 48 hrs by MTT assay

> <document_journal>
Eur J Med Chem

> <molecule_chembl_id>
CHEMBL1253965

> <standard_value>
53100

> <IC50_uM>
53.1

> <Activity>
No

> <Canonical_Smiles>
Clc1ccc(-c2nnc(-c3c[nH]c4ccccc34)s2)cc1

$$$$

  SciTegic03142313312D

 23 26  0  0  0  0            999 V2000
   -9.6657   -4.2901    0.0000 C   0  0
   -8.8463   -5.5465    0.0000 N   0  0
   -9.5252   -6.8841    0.0000 C   0  0
   -7.3477   -5.4660    0.0000 C   0  0
   -6.5265   -6.7213    0.0000 C   0  0
   -5.0288   -6.6378    0.0000 C   0  0
   -4.3554   -5.3030    0.0000 C   0  0
   -2.8675   -5.1069    0.0000 C   0  0
   -1.8348   -6.1949    0.0000 N   0  0
   -0.4810   -5.5489    0.0000 N   0  0
   -0.6928   -4.0817    0.0000 C   0  0
    0.3114   -2.9665    0.0000 C   0  0
    1.8032   -3.1233    0.0000 C   0  0
    2.4133   -1.7530    0.0000 N   0  0
    1.2990   -0.7500    0.0000 C   0  0
    1.2990    0.7500    0.0000 C   0  0
    0.0000    1.5000    0.0000 C   0  0
   -1.2990    0.7500    0.0000 C   0  0
   -1.2990   -0.7500    0.0000 C   0  0
    0.0000   -1.5000    0.0000 C   0  0
   -2.1519   -3.7886    0.0000 S   0  0
   -5.1735   -4.0437    0.0000 C   0  0
   -6.6712   -4.1272    0.0000 C   0  0
  1  2  1  0
  2  3  1  0
  2  4  1  0
  4  5  2  0
  5  6  1  0
  6  7  2  0
  7  8  1  0
  8  9  2  0
  9 10  1  0
 10 11  2  0
 11 12  1  0
 12 13  2  0
 13 14  1  0
 14 15  1  0
 15 16  2  0
 16 17  1  0
 17 18  2  0
 18 19  1  0
 19 20  2  0
 20 12  1  0
 20 15  1  0
 11 21  1  0
 21  8  1  0
  7 22  1  0
 22 23  2  0
 23  4  1  0
M  END
> <assay_chembl_id>
CHEMBL1250828

> <assay_description>
Cytotoxicity against human LNCAP cells after 48 hrs by MTT assay

> <document_journal>
Eur J Med Chem

> <molecule_chembl_id>
CHEMBL1253966

> <standard_value>
23000

> <IC50_uM>
23

> <Activity>
No

> <Canonical_Smiles>
CN(C)c1ccc(-c2nnc(-c3c[nH]c4ccccc34)s2)cc1

$$$$

  SciTegic03142313312D

 24 27  0  0  0  0            999 V2000
   -9.5206   -6.8924    0.0000 C   0  0
   -8.8460   -5.5527    0.0000 O   0  0
   -7.3477   -5.4660    0.0000 C   0  0
   -6.5265   -6.7213    0.0000 C   0  0
   -5.0288   -6.6378    0.0000 C   0  0
   -4.3554   -5.3030    0.0000 C   0  0
   -2.8675   -5.1069    0.0000 C   0  0
   -1.8348   -6.1949    0.0000 N   0  0
   -0.4810   -5.5489    0.0000 N   0  0
   -0.6928   -4.0817    0.0000 C   0  0
    0.3114   -2.9665    0.0000 C   0  0
    1.8032   -3.1233    0.0000 C   0  0
    2.4133   -1.7530    0.0000 N   0  0
    1.2990   -0.7500    0.0000 C   0  0
    1.2990    0.7500    0.0000 C   0  0
    0.0000    1.5000    0.0000 C   0  0
   -1.2990    0.7500    0.0000 C   0  0
   -1.2990   -0.7500    0.0000 C   0  0
    0.0000   -1.5000    0.0000 C   0  0
   -2.1519   -3.7886    0.0000 S   0  0
   -5.1735   -4.0437    0.0000 C   0  0
   -6.6712   -4.1272    0.0000 C   0  0
   -7.4902   -2.8696    0.0000 O   0  0
   -6.8118   -1.5318    0.0000 C   0  0
  1  2  1  0
  2  3  1  0
  3  4  2  0
  4  5  1  0
  5  6  2  0
  6  7  1  0
  7  8  2  0
  8  9  1  0
  9 10  2  0
 10 11  1  0
 11 12  2  0
 12 13  1  0
 13 14  1  0
 14 15  2  0
 15 16  1  0
 16 17  2  0
 17 18  1  0
 18 19  2  0
 19 11  1  0
 19 14  1  0
 10 20  1  0
 20  7  1  0
  6 21  1  0
 21 22  2  0
 22  3  1  0
 22 23  1  0
 23 24  1  0
M  END
> <assay_chembl_id>
CHEMBL1250828

> <assay_description>
Cytotoxicity against human LNCAP cells after 48 hrs by MTT assay

> <document_journal>
Eur J Med Chem

> <molecule_chembl_id>
CHEMBL1253967

> <standard_value>
21000

> <IC50_uM>
21

> <Activity>
No

> <Canonical_Smiles>
COc1ccc(-c2nnc(-c3c[nH]c4ccccc34)s2)cc1OC

$$$$

  SciTegic03142313312D

 26 29  0  0  0  0            999 V2000
   -6.3777   -9.3163    0.0000 C   0  0
   -7.2006   -8.0622    0.0000 O   0  0
   -6.5265   -6.7213    0.0000 C   0  0
   -5.0288   -6.6378    0.0000 C   0  0
   -4.3554   -5.3030    0.0000 C   0  0
   -2.8675   -5.1069    0.0000 C   0  0
   -1.8348   -6.1949    0.0000 N   0  0
   -0.4810   -5.5489    0.0000 N   0  0
   -0.6928   -4.0817    0.0000 C   0  0
    0.3114   -2.9665    0.0000 C   0  0
    1.8032   -3.1233    0.0000 C   0  0
    2.4133   -1.7530    0.0000 N   0  0
    1.2990   -0.7500    0.0000 C   0  0
    1.2990    0.7500    0.0000 C   0  0
    0.0000    1.5000    0.0000 C   0  0
   -1.2990    0.7500    0.0000 C   0  0
   -1.2990   -0.7500    0.0000 C   0  0
    0.0000   -1.5000    0.0000 C   0  0
   -2.1519   -3.7886    0.0000 S   0  0
   -5.1735   -4.0437    0.0000 C   0  0
   -6.6712   -4.1272    0.0000 C   0  0
   -7.4902   -2.8696    0.0000 O   0  0
   -6.8118   -1.5318    0.0000 C   0  0
   -7.3477   -5.4660    0.0000 C   0  0
   -8.8460   -5.5527    0.0000 O   0  0
   -9.5206   -6.8924    0.0000 C   0  0
  1  2  1  0
  2  3  1  0
  3  4  2  0
  4  5  1  0
  5  6  1  0
  6  7  2  0
  7  8  1  0
  8  9  2  0
  9 10  1  0
 10 11  2  0
 11 12  1  0
 12 13  1  0
 13 14  2  0
 14 15  1  0
 15 16  2  0
 16 17  1  0
 17 18  2  0
 18 10  1  0
 18 13  1  0
  9 19  1  0
 19  6  1  0
  5 20  2  0
 20 21  1  0
 21 22  1  0
 22 23  1  0
 21 24  2  0
 24  3  1  0
 24 25  1  0
 25 26  1  0
M  END
> <assay_chembl_id>
CHEMBL1250828

> <assay_description>
Cytotoxicity against human LNCAP cells after 48 hrs by MTT assay

> <document_journal>
Eur J Med Chem

> <molecule_chembl_id>
CHEMBL1254058

> <standard_value>
40000

> <IC50_uM>
40

> <Activity>
No

> <Canonical_Smiles>
COc1cc(-c2nnc(-c3c[nH]c4ccccc34)s2)cc(OC)c1OC

$$$$

  SciTegic03142313312D

 20 23  0  0  0  0            999 V2000
    1.2990   -0.7500    0.0000 C   0  0
    1.2990    0.7500    0.0000 C   0  0
    0.0000    1.5000    0.0000 C   0  0
   -1.2990    0.7500    0.0000 C   0  0
   -2.7248    1.2135    0.0000 C   0  0
   -3.1884    2.6408    0.0000 C   0  0
   -2.3980    3.8950    0.0000 N   0  0
   -3.3718    5.0359    0.0000 N   0  0
   -4.7578    4.4622    0.0000 C   0  0
   -6.0372    5.2466    0.0000 C   0  0
   -6.1094    6.7399    0.0000 C   0  0
   -7.4435    7.4256    0.0000 C   0  0
   -8.7043    6.6130    0.0000 N   0  0
   -8.6310    5.1148    0.0000 C   0  0
   -7.2969    4.4291    0.0000 C   0  0
   -4.6405    2.9668    0.0000 S   0  0
   -3.6065    0.0000    0.0000 C   0  0
   -2.7248   -1.2135    0.0000 N   0  0
   -1.2990   -0.7500    0.0000 C   0  0
    0.0000   -1.5000    0.0000 C   0  0
  1  2  2  0
  2  3  1  0
  3  4  2  0
  4  5  1  0
  5  6  1  0
  6  7  2  0
  7  8  1  0
  8  9  2  0
  9 10  1  0
 10 11  2  0
 11 12  1  0
 12 13  2  0
 13 14  1  0
 14 15  2  0
 15 10  1  0
  9 16  1  0
 16  6  1  0
  5 17  2  0
 17 18  1  0
 18 19  1  0
 19  4  1  0
 19 20  2  0
 20  1  1  0
M  END
> <assay_chembl_id>
CHEMBL1250828

> <assay_description>
Cytotoxicity against human LNCAP cells after 48 hrs by MTT assay

> <document_journal>
Eur J Med Chem

> <molecule_chembl_id>
CHEMBL1253686

> <standard_value>
95000

> <IC50_uM>
95

> <Activity>
No

> <Canonical_Smiles>
c1ccc2c(-c3nnc(-c4ccncc4)s3)c[nH]c2c1

$$$$

  SciTegic03142313312D

 24 27  0  0  0  0            999 V2000
   -9.6657   -4.2901    0.0000 C   0  0
   -8.8463   -5.5465    0.0000 N   0  0
   -9.5252   -6.8841    0.0000 C   0  0
   -7.3477   -5.4660    0.0000 C   0  0
   -6.5265   -6.7213    0.0000 C   0  0
   -5.0288   -6.6378    0.0000 C   0  0
   -4.3554   -5.3030    0.0000 C   0  0
   -2.8675   -5.1069    0.0000 C   0  0
   -1.8348   -6.1949    0.0000 N   0  0
   -0.4810   -5.5489    0.0000 N   0  0
   -0.6928   -4.0817    0.0000 C   0  0
    0.3114   -2.9665    0.0000 C   0  0
    1.8032   -3.1233    0.0000 C   0  0
    2.4133   -1.7530    0.0000 N   0  0
    1.2990   -0.7500    0.0000 C   0  0
    1.2990    0.7500    0.0000 C   0  0
    0.0000    1.5000    0.0000 C   0  0
   -1.2990    0.7500    0.0000 C   0  0
   -2.5981    1.5000    0.0000 Br  0  0
   -1.2990   -0.7500    0.0000 C   0  0
    0.0000   -1.5000    0.0000 C   0  0
   -2.1519   -3.7886    0.0000 S   0  0
   -5.1735   -4.0437    0.0000 C   0  0
   -6.6712   -4.1272    0.0000 C   0  0
  1  2  1  0
  2  3  1  0
  2  4  1  0
  4  5  2  0
  5  6  1  0
  6  7  2  0
  7  8  1  0
  8  9  2  0
  9 10  1  0
 10 11  2  0
 11 12  1  0
 12 13  2  0
 13 14  1  0
 14 15  1  0
 15 16  2  0
 16 17  1  0
 17 18  2  0
 18 19  1  0
 18 20  1  0
 20 21  2  0
 21 12  1  0
 21 15  1  0
 11 22  1  0
 22  8  1  0
  7 23  1  0
 23 24  2  0
 24  4  1  0
M  END
> <assay_chembl_id>
CHEMBL1250828

> <assay_description>
Cytotoxicity against human LNCAP cells after 48 hrs by MTT assay

> <document_journal>
Eur J Med Chem

> <molecule_chembl_id>
CHEMBL1254152

> <standard_value>
31300

> <IC50_uM>
31.3

> <Activity>
No

> <Canonical_Smiles>
CN(C)c1ccc(-c2nnc(-c3c[nH]c4ccc(Br)cc34)s2)cc1

$$$$

  SciTegic03142313312D

 27 30  0  0  0  0            999 V2000
   -6.3777   -9.3163    0.0000 C   0  0
   -7.2006   -8.0622    0.0000 O   0  0
   -6.5265   -6.7213    0.0000 C   0  0
   -5.0288   -6.6378    0.0000 C   0  0
   -4.3554   -5.3030    0.0000 C   0  0
   -2.8675   -5.1069    0.0000 C   0  0
   -1.8348   -6.1949    0.0000 N   0  0
   -0.4810   -5.5489    0.0000 N   0  0
   -0.6928   -4.0817    0.0000 C   0  0
    0.3114   -2.9665    0.0000 C   0  0
    1.8032   -3.1233    0.0000 C   0  0
    2.4133   -1.7530    0.0000 N   0  0
    1.2990   -0.7500    0.0000 C   0  0
    1.2990    0.7500    0.0000 C   0  0
    0.0000    1.5000    0.0000 C   0  0
   -1.2990    0.7500    0.0000 C   0  0
   -2.5981    1.5000    0.0000 Br  0  0
   -1.2990   -0.7500    0.0000 C   0  0
    0.0000   -1.5000    0.0000 C   0  0
   -2.1519   -3.7886    0.0000 S   0  0
   -5.1735   -4.0437    0.0000 C   0  0
   -6.6712   -4.1272    0.0000 C   0  0
   -7.4902   -2.8696    0.0000 O   0  0
   -6.8118   -1.5318    0.0000 C   0  0
   -7.3477   -5.4660    0.0000 C   0  0
   -8.8460   -5.5527    0.0000 O   0  0
   -9.5206   -6.8924    0.0000 C   0  0
  1  2  1  0
  2  3  1  0
  3  4  2  0
  4  5  1  0
  5  6  1  0
  6  7  2  0
  7  8  1  0
  8  9  2  0
  9 10  1  0
 10 11  2  0
 11 12  1  0
 12 13  1  0
 13 14  2  0
 14 15  1  0
 15 16  2  0
 16 17  1  0
 16 18  1  0
 18 19  2  0
 19 10  1  0
 19 13  1  0
  9 20  1  0
 20  6  1  0
  5 21  2  0
 21 22  1  0
 22 23  1  0
 23 24  1  0
 22 25  2  0
 25  3  1  0
 25 26  1  0
 26 27  1  0
M  END
> <assay_chembl_id>
CHEMBL1250828

> <assay_description>
Cytotoxicity against human LNCAP cells after 48 hrs by MTT assay

> <document_journal>
Eur J Med Chem

> <molecule_chembl_id>
CHEMBL1254245

> <standard_value>
66400

> <IC50_uM>
66.4

> <Activity>
No

> <Canonical_Smiles>
COc1cc(-c2nnc(-c3c[nH]c4ccc(Br)cc34)s2)cc(OC)c1OC

$$$$

  SciTegic03142313312D

 23 27  0  0  1  0            999 V2000
    3.8983   -0.7459    0.0000 C   0  0
    2.6003   -1.4977    0.0000 O   0  0
    1.2990   -0.7500    0.0000 C   0  0
    1.2990    0.7500    0.0000 C   0  0
    0.0000    1.5000    0.0000 C   0  0
   -1.2990    0.7500    0.0000 C   0  0
   -1.2990   -0.7500    0.0000 C   0  0
    0.0000   -1.5000    0.0000 C   0  0
    0.0000   -3.0000    0.0000 O   0  0
   -2.5981    1.5000    0.0000 C   0  0
   -2.5981    3.0000    0.0000 C   0  0  2  0  0  0
   -3.8971    3.7500    0.0000 N   0  0
   -3.8971    5.2500    0.0000 C   0  0
   -2.5981    6.0000    0.0000 C   0  0
   -1.2991    5.2500    0.0000 C   0  0
    0.0000    6.0000    0.0000 C   0  0
    1.2990    5.2500    0.0000 C   0  0
    1.2990    3.7500    0.0000 C   0  0
    0.0000    3.0000    0.0000 C   0  0
   -1.2991    3.7500    0.0000 C   0  0
    2.7248    3.2865    0.0000 O   0  0
    3.6064    4.5000    0.0000 C   0  0
    2.7248    5.7135    0.0000 O   0  0
  1  2  1  0
  2  3  1  0
  3  4  2  0
  4  5  1  0
  5  6  2  0
  6  7  1  0
  7  8  2  0
  8  3  1  0
  8  9  1  0
  6 10  1  0
 11 10  1  6
 11 12  1  0
 12 13  1  0
 13 14  1  0
 14 15  1  0
 15 16  2  0
 16 17  1  0
 17 18  2  0
 18 19  1  0
 19  5  1  0
 19 20  2  0
 20 15  1  0
 20 11  1  0
 18 21  1  0
 21 22  1  0
 22 23  1  0
 23 17  1  0
M  END
> <assay_chembl_id>
CHEMBL1259839

> <assay_description>
Cytotoxicity against human LNCAP cells after 72 hrs by alamar blue assay

> <document_journal>
Bioorg Med Chem Lett

> <molecule_chembl_id>
CHEMBL1258056

> <standard_value>
27400

> <IC50_uM>
27.4

> <Activity>
No

> <RemovedSalts>
OC(=O)C(F)(F)F

> <Canonical_Smiles>
COc1cc2c(cc1O)C[C@@H]1NCCc3cc4c(c-2c31)OCO4.O=C(O)C(F)(F)F

$$$$

  SciTegic03142313312D

 60 68  0  0  1  0            999 V2000
    2.3980    5.1974    0.0000 C   0  0
    1.0617    4.5159    0.0000 C   0  0
   -0.2000    5.2900    0.0000 C   0  0  2  0  0  0
   -0.2341    6.7896    0.0000 O   0  0
   -0.2000    4.0900    0.0000 C   0  0
   -1.2300    3.5100    0.0000 C   0  0  1  0  0  0
   -2.2500    4.0900    0.0000 C   0  0
   -2.2500    5.2900    0.0000 N   0  0  3  0  0  0
   -3.9200    5.5000    0.0000 C   0  0
   -5.4100    4.7800    0.0000 C   0  0
   -5.7000    3.1300    0.0000 C   0  0
   -4.9700    1.7900    0.0000 C   0  0
   -6.0100    0.6800    0.0000 N   0  0
   -7.4000    1.3200    0.0000 C   0  0
   -8.8100    0.7400    0.0000 C   0  0
  -10.0200    1.6700    0.0000 C   0  0
   -9.8300    3.1800    0.0000 C   0  0
   -8.4200    3.7700    0.0000 C   0  0
   -7.2000    2.8400    0.0000 C   0  0
   -3.3800    1.2800    0.0000 C   0  0  1  0  0  0
   -4.3011    0.1350    0.0000 C   0  0
   -5.7734    0.4218    0.0000 O   0  0
   -3.8135   -1.2844    0.0000 O   0  0
   -4.7977   -2.4164    0.0000 C   0  0
   -2.3301    0.2513    0.0000 C   0  0
   -2.7110   -1.1720    0.0000 C   0  0
   -1.6165   -2.2180    0.0000 C   0  0
   -0.2693   -1.8150    0.0000 C   0  0
    0.1414   -0.3694    0.0000 C   0  0
   -0.9061    0.6597    0.0000 C   0  0
   -0.5303    2.1129    0.0000 O   0  0
    0.4332    2.3808    0.0000 C   0  0
    0.6269   -3.0200    0.0000 N   0  0
    2.1244   -3.0533    0.0000 C   0  0
    2.8460   -4.3683    0.0000 O   0  0
   -0.2779   -4.1651    0.0000 C   0  0  1  0  0  0
   -0.0140   -5.6041    0.0000 C   0  0  1  0  0  0
    1.0936   -4.5926    0.0000 O   0  0
    0.2302   -7.0636    0.0000 C   0  0
   -0.5575   -7.6797    0.0000 O   0  0
    1.6218   -7.6255    0.0000 O   0  0
    1.8319   -9.1108    0.0000 C   0  0
   -1.1529   -6.6124    0.0000 C   0  0  2  0  0  0
   -0.8799   -8.0880    0.0000 O   0  0
   -2.0206   -9.0633    0.0000 C   0  0
   -1.8376  -10.0464    0.0000 C   0  0
   -3.4352   -8.5642    0.0000 O   0  0
   -2.5335   -6.1188    0.0000 C   0  0  2  0  0  0
   -2.2630   -7.5946    0.0000 C   0  0
   -3.0242   -8.2431    0.0000 C   0  0
   -3.6287   -7.0542    0.0000 C   0  0
   -5.0406   -6.5494    0.0000 C   0  0
   -5.3459   -4.5824    0.0000 C   0  0
   -4.0445   -3.8623    0.0000 N   0  0  3  0  0  0
   -3.7291   -2.4358    0.0000 C   0  0
   -2.2452   -2.2939    0.0000 C   0  0
   -1.6741   -3.6659    0.0000 C   0  0  2  0  0  0
   -2.8019   -4.6427    0.0000 C   0  0  2  0  0  0
   -1.8700    1.9700    0.0000 C   0  0
   -1.2300    5.8900    0.0000 C   0  0
  1  2  1  0
  2  3  1  0
  3  4  1  1
  3  5  1  0
  6  5  1  6
  6  7  1  0
  8  7  1  4
  8  9  1  0
  9 10  1  0
 10 11  1  0
 11 12  2  0
 12 13  1  0
 13 14  1  0
 14 15  2  0
 15 16  1  0
 16 17  2  0
 17 18  1  0
 18 19  2  0
 19 11  1  0
 19 14  1  0
 12 20  1  0
 20 21  1  1
 21 22  2  0
 21 23  1  0
 23 24  1  0
 20 25  1  0
 25 26  2  0
 26 27  1  0
 27 28  2  0
 28 29  1  0
 29 30  2  0
 30 25  1  0
 30 31  1  0
 31 32  1  0
 28 33  1  0
 33 34  1  0
 34 35  2  0
 36 33  1  1
 36 37  1  0
 37 38  1  6
 37 39  1  0
 39 40  2  0
 39 41  1  0
 41 42  1  0
 37 43  1  0
 43 44  1  6
 44 45  1  0
 45 46  1  0
 45 47  2  0
 43 48  1  0
 48 49  1  1
 49 50  1  0
 48 51  1  0
 51 52  2  0
 52 53  1  0
 54 53  1  4
 54 55  1  0
 55 56  1  0
 57 56  1  6
 57 27  1  0
 57 36  1  0
 57 58  1  0
 58 54  1  6
 58 48  1  0
 20 59  1  0
 59  6  1  0
  8 60  1  0
 60  3  1  0
M  END
> <assay_chembl_id>
CHEMBL1259839

> <assay_description>
Cytotoxicity against human LNCAP cells after 72 hrs by alamar blue assay

> <document_journal>
Bioorg Med Chem Lett

> <molecule_chembl_id>
CHEMBL501867

> <standard_value>
2.9

> <IC50_uM>
0.0029

> <Activity>
Yes

> <Canonical_Smiles>
CC[C@]1(O)C[C@H]2CN(CCc3c([nH]c4ccccc34)[C@@](C(=O)OC)(c3cc4c(cc3OC)N(C=O)[C@H]3[C@@](O)(C(=O)OC)[C@H](OC(C)=O)[C@]5(CC)C=CCN6CC[C@]43[C@@H]65)C2)C1.O=S(=O)(O)O

$$$$

  SciTegic03142313312D

 25 27  0  0  0  0            999 V2000
    3.8983   -0.7459    0.0000 C   0  0
    2.6003   -1.4977    0.0000 O   0  0
    1.2990   -0.7500    0.0000 C   0  0
    1.2990    0.7500    0.0000 C   0  0
    0.0000    1.5000    0.0000 C   0  0
   -0.0031    3.0008    0.0000 C   0  0
    1.2946    3.7531    0.0000 O   0  0
   -1.3039    3.7494    0.0000 C   0  0
   -1.4470    5.2297    0.0000 C   0  0
   -2.9153    5.5365    0.0000 N   0  0
   -3.6607    4.2349    0.0000 C   0  0
   -5.1527    4.0728    0.0000 C   0  0
   -6.1233    5.2100    0.0000 C   0  0
   -7.5981    4.9362    0.0000 C   0  0
   -8.0984    3.5221    0.0000 C   0  0
   -7.1240    2.3818    0.0000 C   0  0
   -5.6491    2.6555    0.0000 C   0  0
   -2.6532    3.1236    0.0000 N   0  0
   -1.2990    0.7500    0.0000 C   0  0
   -1.2990   -0.7500    0.0000 C   0  0
   -2.6003   -1.4978    0.0000 O   0  0
   -3.8983   -0.7459    0.0000 C   0  0
    0.0000   -1.5000    0.0000 C   0  0
    0.0031   -3.0008    0.0000 O   0  0
    1.3032   -3.7490    0.0000 C   0  0
  1  2  1  0
  2  3  1  0
  3  4  2  0
  4  5  1  0
  5  6  1  0
  6  7  2  0
  6  8  1  0
  8  9  2  0
  9 10  1  0
 10 11  1  0
 11 12  1  0
 12 13  2  0
 13 14  1  0
 14 15  2  0
 15 16  1  0
 16 17  2  0
 17 12  1  0
 11 18  2  0
 18  8  1  0
  5 19  2  0
 19 20  1  0
 20 21  1  0
 21 22  1  0
 20 23  2  0
 23  3  1  0
 23 24  1  0
 24 25  1  0
M  END
> <assay_chembl_id>
CHEMBL1272403

> <assay_description>
Cytotoxicity against human LNCAP cells after 48 hrs by sulforhodamine B assay

> <document_journal>
J Med Chem

> <molecule_chembl_id>
CHEMBL1271737

> <standard_value>
150

> <IC50_uM>
0.15

> <Activity>
Yes

> <Canonical_Smiles>
COc1cc(C(=O)c2c[nH]c(-c3ccccc3)n2)cc(OC)c1OC

$$$$

  SciTegic03142313312D

 20 22  0  0  0  0            999 V2000
    3.8976   -0.7553    0.0000 O   0  0
    2.5973   -1.5031    0.0000 C   0  0
    1.2990   -0.7500    0.0000 C   0  0
    1.2990    0.7500    0.0000 C   0  0
    0.0000    1.5000    0.0000 C   0  0
   -1.2990    0.7500    0.0000 C   0  0
   -2.5981    1.5000    0.0000 F   0  0
   -1.2990   -0.7500    0.0000 C   0  0
    0.0000   -1.5000    0.0000 C   0  0
    2.5951   -3.0039    0.0000 C   0  0
    3.8056   -3.8679    0.0000 C   0  0
    3.3372   -5.2929    0.0000 N   0  0
    1.8372   -5.2877    0.0000 C   0  0
    0.9508   -6.4988    0.0000 C   0  0
    1.4504   -7.9079    0.0000 C   0  0
    0.4759   -9.0482    0.0000 C   0  0
   -0.9989   -8.7745    0.0000 C   0  0
   -1.4993   -7.3604    0.0000 C   0  0
   -0.5248   -6.2201    0.0000 C   0  0
    1.3786   -3.8595    0.0000 N   0  0
  1  2  2  0
  2  3  1  0
  3  4  2  0
  4  5  1  0
  5  6  2  0
  6  7  1  0
  6  8  1  0
  8  9  2  0
  9  3  1  0
  2 10  1  0
 10 11  2  0
 11 12  1  0
 12 13  1  0
 13 14  1  0
 14 15  2  0
 15 16  1  0
 16 17  2  0
 17 18  1  0
 18 19  2  0
 19 14  1  0
 13 20  2  0
 20 10  1  0
M  END
> <assay_chembl_id>
CHEMBL1272403

> <assay_description>
Cytotoxicity against human LNCAP cells after 48 hrs by sulforhodamine B assay

> <document_journal>
J Med Chem

> <molecule_chembl_id>
CHEMBL1269807

> <standard_value>
610

> <IC50_uM>
0.61

> <Activity>
Yes

> <Canonical_Smiles>
O=C(c1ccc(F)cc1)c1c[nH]c(-c2ccccc2)n1

$$$$

  SciTegic03142313312D

 26 28  0  0  0  0            999 V2000
    3.8983   -0.7459    0.0000 C   0  0
    2.6003   -1.4977    0.0000 O   0  0
    1.2990   -0.7500    0.0000 C   0  0
    1.2990    0.7500    0.0000 C   0  0
    0.0000    1.5000    0.0000 C   0  0
   -0.0031    3.0008    0.0000 C   0  0
    1.2946    3.7531    0.0000 O   0  0
   -1.3039    3.7494    0.0000 C   0  0
   -1.4470    5.2297    0.0000 C   0  0
   -2.9153    5.5365    0.0000 N   0  0
   -3.6607    4.2349    0.0000 C   0  0
   -5.1527    4.0728    0.0000 C   0  0
   -6.1233    5.2100    0.0000 C   0  0
   -7.5981    4.9362    0.0000 C   0  0
   -8.0984    3.5221    0.0000 C   0  0
   -9.5732    3.2484    0.0000 F   0  0
   -7.1240    2.3818    0.0000 C   0  0
   -5.6491    2.6555    0.0000 C   0  0
   -2.6532    3.1236    0.0000 N   0  0
   -1.2990    0.7500    0.0000 C   0  0
   -1.2990   -0.7500    0.0000 C   0  0
   -2.6003   -1.4978    0.0000 O   0  0
   -3.8983   -0.7459    0.0000 C   0  0
    0.0000   -1.5000    0.0000 C   0  0
    0.0031   -3.0008    0.0000 O   0  0
    1.3032   -3.7490    0.0000 C   0  0
  1  2  1  0
  2  3  1  0
  3  4  2  0
  4  5  1  0
  5  6  1  0
  6  7  2  0
  6  8  1  0
  8  9  2  0
  9 10  1  0
 10 11  1  0
 11 12  1  0
 12 13  2  0
 13 14  1  0
 14 15  2  0
 15 16  1  0
 15 17  1  0
 17 18  2  0
 18 12  1  0
 11 19  2  0
 19  8  1  0
  5 20  2  0
 20 21  1  0
 21 22  1  0
 22 23  1  0
 21 24  2  0
 24  3  1  0
 24 25  1  0
 25 26  1  0
M  END
> <assay_chembl_id>
CHEMBL1272403

> <assay_description>
Cytotoxicity against human LNCAP cells after 48 hrs by sulforhodamine B assay

> <document_journal>
J Med Chem

> <molecule_chembl_id>
CHEMBL1271912

> <standard_value>
98

> <IC50_uM>
0.098

> <Activity>
Yes

> <Canonical_Smiles>
COc1cc(C(=O)c2c[nH]c(-c3ccc(F)cc3)n2)cc(OC)c1OC

$$$$

  SciTegic03142313312D

 27 29  0  0  0  0            999 V2000
    2.5951   -3.0031    0.0000 C   0  0
    2.5973   -1.5031    0.0000 O   0  0
    1.2990   -0.7500    0.0000 C   0  0
    1.2990    0.7500    0.0000 C   0  0
    0.0000    1.5000    0.0000 C   0  0
   -1.2990    0.7500    0.0000 C   0  0
   -2.5987    1.5004    0.0000 C   0  0
   -2.7390    2.9810    0.0000 N   0  0
   -4.2067    3.2905    0.0000 C   0  0
   -4.8211    4.6570    0.0000 C   0  0
   -3.9435    5.8735    0.0000 O   0  0
   -6.3142    4.8094    0.0000 C   0  0
   -6.9313    6.1766    0.0000 C   0  0
   -8.4239    6.3258    0.0000 C   0  0
   -9.0384    7.6950    0.0000 O   0  0
   -8.1612    8.9118    0.0000 C   0  0
   -9.2994    5.1078    0.0000 C   0  0
  -10.7931    5.2541    0.0000 O   0  0
  -11.6669    4.0348    0.0000 C   0  0
   -8.6823    3.7406    0.0000 C   0  0
   -9.5558    2.5202    0.0000 O   0  0
   -8.9369    1.1538    0.0000 C   0  0
   -7.1898    3.5914    0.0000 C   0  0
   -4.9546    1.9903    0.0000 C   0  0
   -3.9492    0.8772    0.0000 N   0  0
   -1.2990   -0.7500    0.0000 C   0  0
    0.0000   -1.5000    0.0000 C   0  0
  1  2  1  0
  2  3  1  0
  3  4  2  0
  4  5  1  0
  5  6  2  0
  6  7  1  0
  7  8  2  0
  8  9  1  0
  9 10  1  0
 10 11  2  0
 10 12  1  0
 12 13  2  0
 13 14  1  0
 14 15  1  0
 15 16  1  0
 14 17  2  0
 17 18  1  0
 18 19  1  0
 17 20  1  0
 20 21  1  0
 21 22  1  0
 20 23  2  0
 23 12  1  0
  9 24  2  0
 24 25  1  0
 25  7  1  0
  6 26  1  0
 26 27  2  0
 27  3  1  0
M  END
> <assay_chembl_id>
CHEMBL1272403

> <assay_description>
Cytotoxicity against human LNCAP cells after 48 hrs by sulforhodamine B assay

> <document_journal>
J Med Chem

> <molecule_chembl_id>
CHEMBL1271967

> <standard_value>
31

> <IC50_uM>
0.031

> <Activity>
Yes

> <Canonical_Smiles>
COc1ccc(-c2nc(C(=O)c3cc(OC)c(OC)c(OC)c3)c[nH]2)cc1

$$$$

  SciTegic03142313312D

 22 24  0  0  0  0            999 V2000
    2.5951   -3.0031    0.0000 C   0  0
    2.5973   -1.5031    0.0000 O   0  0
    1.2990   -0.7500    0.0000 C   0  0
    1.2990    0.7500    0.0000 C   0  0
    0.0000    1.5000    0.0000 C   0  0
   -1.2990    0.7500    0.0000 C   0  0
   -2.5987    1.5004    0.0000 C   0  0
   -2.7390    2.9810    0.0000 N   0  0
   -4.2067    3.2905    0.0000 C   0  0
   -4.8211    4.6570    0.0000 C   0  0
   -3.9435    5.8735    0.0000 O   0  0
   -6.3142    4.8094    0.0000 C   0  0
   -6.9313    6.1766    0.0000 C   0  0
   -8.4239    6.3258    0.0000 C   0  0
   -9.2994    5.1078    0.0000 C   0  0
  -10.7919    5.2570    0.0000 F   0  0
   -8.6823    3.7406    0.0000 C   0  0
   -7.1898    3.5914    0.0000 C   0  0
   -4.9546    1.9903    0.0000 C   0  0
   -3.9492    0.8772    0.0000 N   0  0
   -1.2990   -0.7500    0.0000 C   0  0
    0.0000   -1.5000    0.0000 C   0  0
  1  2  1  0
  2  3  1  0
  3  4  2  0
  4  5  1  0
  5  6  2  0
  6  7  1  0
  7  8  2  0
  8  9  1  0
  9 10  1  0
 10 11  2  0
 10 12  1  0
 12 13  2  0
 13 14  1  0
 14 15  2  0
 15 16  1  0
 15 17  1  0
 17 18  2  0
 18 12  1  0
  9 19  2  0
 19 20  1  0
 20  7  1  0
  6 21  1  0
 21 22  2  0
 22  3  1  0
M  END
> <assay_chembl_id>
CHEMBL1272403

> <assay_description>
Cytotoxicity against human LNCAP cells after 48 hrs by sulforhodamine B assay

> <document_journal>
J Med Chem

> <molecule_chembl_id>
CHEMBL1271968

> <standard_value>
28

> <IC50_uM>
0.028

> <Activity>
Yes

> <Canonical_Smiles>
COc1ccc(-c2nc(C(=O)c3ccc(F)cc3)c[nH]2)cc1

$$$$

  SciTegic03142313312D

 26 28  0  0  0  0            999 V2000
    3.8983   -0.7459    0.0000 C   0  0
    2.6003   -1.4977    0.0000 O   0  0
    1.2990   -0.7500    0.0000 C   0  0
    1.2990    0.7500    0.0000 C   0  0
    0.0000    1.5000    0.0000 C   0  0
   -0.0031    3.0008    0.0000 C   0  0
    1.2946    3.7531    0.0000 O   0  0
   -1.3039    3.7494    0.0000 C   0  0
   -1.4470    5.2297    0.0000 C   0  0
   -2.9153    5.5365    0.0000 N   0  0
   -3.6607    4.2349    0.0000 C   0  0
   -5.1527    4.0728    0.0000 C   0  0
   -6.1233    5.2100    0.0000 C   0  0
   -7.5981    4.9362    0.0000 C   0  0
   -8.0984    3.5221    0.0000 C   0  0
   -9.5732    3.2484    0.0000 C   0  0
   -7.1240    2.3818    0.0000 C   0  0
   -5.6491    2.6555    0.0000 C   0  0
   -2.6532    3.1236    0.0000 N   0  0
   -1.2990    0.7500    0.0000 C   0  0
   -1.2990   -0.7500    0.0000 C   0  0
   -2.6003   -1.4978    0.0000 O   0  0
   -3.8983   -0.7459    0.0000 C   0  0
    0.0000   -1.5000    0.0000 C   0  0
    0.0031   -3.0008    0.0000 O   0  0
    1.3032   -3.7490    0.0000 C   0  0
  1  2  1  0
  2  3  1  0
  3  4  2  0
  4  5  1  0
  5  6  1  0
  6  7  2  0
  6  8  1  0
  8  9  2  0
  9 10  1  0
 10 11  1  0
 11 12  1  0
 12 13  2  0
 13 14  1  0
 14 15  2  0
 15 16  1  0
 15 17  1  0
 17 18  2  0
 18 12  1  0
 11 19  2  0
 19  8  1  0
  5 20  2  0
 20 21  1  0
 21 22  1  0
 22 23  1  0
 21 24  2  0
 24  3  1  0
 24 25  1  0
 25 26  1  0
M  END
> <assay_chembl_id>
CHEMBL1272403

> <assay_description>
Cytotoxicity against human LNCAP cells after 48 hrs by sulforhodamine B assay

> <document_journal>
J Med Chem

> <molecule_chembl_id>
CHEMBL1272023

> <standard_value>
12

> <IC50_uM>
0.012

> <Activity>
Yes

> <Canonical_Smiles>
COc1cc(C(=O)c2c[nH]c(-c3ccc(C)cc3)n2)cc(OC)c1OC

$$$$

  SciTegic03142313312D

 21 23  0  0  0  0            999 V2000
    2.5981   -1.5000    0.0000 C   0  0
    1.2990   -0.7500    0.0000 C   0  0
    1.2990    0.7500    0.0000 C   0  0
    0.0000    1.5000    0.0000 C   0  0
   -1.2990    0.7500    0.0000 C   0  0
   -2.5987    1.5004    0.0000 C   0  0
   -2.7390    2.9810    0.0000 N   0  0
   -4.2067    3.2905    0.0000 C   0  0
   -4.8211    4.6570    0.0000 C   0  0
   -3.9435    5.8735    0.0000 O   0  0
   -6.3142    4.8094    0.0000 C   0  0
   -6.9313    6.1766    0.0000 C   0  0
   -8.4239    6.3258    0.0000 C   0  0
   -9.2994    5.1078    0.0000 C   0  0
  -10.7919    5.2570    0.0000 F   0  0
   -8.6823    3.7406    0.0000 C   0  0
   -7.1898    3.5914    0.0000 C   0  0
   -4.9546    1.9903    0.0000 C   0  0
   -3.9492    0.8772    0.0000 N   0  0
   -1.2990   -0.7500    0.0000 C   0  0
    0.0000   -1.5000    0.0000 C   0  0
  1  2  1  0
  2  3  2  0
  3  4  1  0
  4  5  2  0
  5  6  1  0
  6  7  2  0
  7  8  1  0
  8  9  1  0
  9 10  2  0
  9 11  1  0
 11 12  2  0
 12 13  1  0
 13 14  2  0
 14 15  1  0
 14 16  1  0
 16 17  2  0
 17 11  1  0
  8 18  2  0
 18 19  1  0
 19  6  1  0
  5 20  1  0
 20 21  2  0
 21  2  1  0
M  END
> <assay_chembl_id>
CHEMBL1272403

> <assay_description>
Cytotoxicity against human LNCAP cells after 48 hrs by sulforhodamine B assay

> <document_journal>
J Med Chem

> <molecule_chembl_id>
CHEMBL1272024

> <standard_value>
45

> <IC50_uM>
0.045

> <Activity>
Yes

> <Canonical_Smiles>
Cc1ccc(-c2nc(C(=O)c3ccc(F)cc3)c[nH]2)cc1

$$$$

  SciTegic03142313312D

 26 28  0  0  0  0            999 V2000
    3.8983   -0.7459    0.0000 C   0  0
    2.6003   -1.4977    0.0000 O   0  0
    1.2990   -0.7500    0.0000 C   0  0
    1.2990    0.7500    0.0000 C   0  0
    0.0000    1.5000    0.0000 C   0  0
   -0.0031    3.0008    0.0000 C   0  0
    1.2946    3.7531    0.0000 O   0  0
   -1.3039    3.7494    0.0000 C   0  0
   -1.4470    5.2297    0.0000 C   0  0
   -2.9153    5.5365    0.0000 N   0  0
   -3.6607    4.2349    0.0000 C   0  0
   -5.1527    4.0728    0.0000 C   0  0
   -6.1233    5.2100    0.0000 C   0  0
   -7.5981    4.9362    0.0000 C   0  0
   -8.0984    3.5221    0.0000 C   0  0
   -9.5732    3.2484    0.0000 Cl  0  0
   -7.1240    2.3818    0.0000 C   0  0
   -5.6491    2.6555    0.0000 C   0  0
   -2.6532    3.1236    0.0000 N   0  0
   -1.2990    0.7500    0.0000 C   0  0
   -1.2990   -0.7500    0.0000 C   0  0
   -2.6003   -1.4978    0.0000 O   0  0
   -3.8983   -0.7459    0.0000 C   0  0
    0.0000   -1.5000    0.0000 C   0  0
    0.0031   -3.0008    0.0000 O   0  0
    1.3032   -3.7490    0.0000 C   0  0
  1  2  1  0
  2  3  1  0
  3  4  2  0
  4  5  1  0
  5  6  1  0
  6  7  2  0
  6  8  1  0
  8  9  2  0
  9 10  1  0
 10 11  1  0
 11 12  1  0
 12 13  2  0
 13 14  1  0
 14 15  2  0
 15 16  1  0
 15 17  1  0
 17 18  2  0
 18 12  1  0
 11 19  2  0
 19  8  1  0
  5 20  2  0
 20 21  1  0
 21 22  1  0
 22 23  1  0
 21 24  2  0
 24  3  1  0
 24 25  1  0
 25 26  1  0
M  END
> <assay_chembl_id>
CHEMBL1272403

> <assay_description>
Cytotoxicity against human LNCAP cells after 48 hrs by sulforhodamine B assay

> <document_journal>
J Med Chem

> <molecule_chembl_id>
CHEMBL1272129

> <standard_value>
24

> <IC50_uM>
0.024

> <Activity>
Yes

> <Canonical_Smiles>
COc1cc(C(=O)c2c[nH]c(-c3ccc(Cl)cc3)n2)cc(OC)c1OC

$$$$

  SciTegic03142313312D

 21 23  0  0  0  0            999 V2000
    3.8976   -0.7553    0.0000 O   0  0
    2.5973   -1.5031    0.0000 C   0  0
    1.2990   -0.7500    0.0000 C   0  0
    1.2990    0.7500    0.0000 C   0  0
    0.0000    1.5000    0.0000 C   0  0
   -1.2990    0.7500    0.0000 C   0  0
   -2.5981    1.5000    0.0000 F   0  0
   -1.2990   -0.7500    0.0000 C   0  0
    0.0000   -1.5000    0.0000 C   0  0
    2.5951   -3.0039    0.0000 C   0  0
    3.8056   -3.8679    0.0000 C   0  0
    3.3372   -5.2929    0.0000 N   0  0
    1.8372   -5.2877    0.0000 C   0  0
    0.9508   -6.4988    0.0000 C   0  0
    1.4504   -7.9079    0.0000 C   0  0
    0.4759   -9.0482    0.0000 C   0  0
   -0.9989   -8.7745    0.0000 C   0  0
   -1.9734   -9.9149    0.0000 Cl  0  0
   -1.4993   -7.3604    0.0000 C   0  0
   -0.5248   -6.2201    0.0000 C   0  0
    1.3786   -3.8595    0.0000 N   0  0
  1  2  2  0
  2  3  1  0
  3  4  2  0
  4  5  1  0
  5  6  2  0
  6  7  1  0
  6  8  1  0
  8  9  2  0
  9  3  1  0
  2 10  1  0
 10 11  2  0
 11 12  1  0
 12 13  1  0
 13 14  1  0
 14 15  2  0
 15 16  1  0
 16 17  2  0
 17 18  1  0
 17 19  1  0
 19 20  2  0
 20 14  1  0
 13 21  2  0
 21 10  1  0
M  END
> <assay_chembl_id>
CHEMBL1272403

> <assay_description>
Cytotoxicity against human LNCAP cells after 48 hrs by sulforhodamine B assay

> <document_journal>
J Med Chem

> <molecule_chembl_id>
CHEMBL1272130

> <standard_value>
49

> <IC50_uM>
0.049

> <Activity>
Yes

> <Canonical_Smiles>
O=C(c1ccc(F)cc1)c1c[nH]c(-c2ccc(Cl)cc2)n1

$$$$

  SciTegic03142313312D

 28 30  0  0  0  0            999 V2000
    3.8983   -0.7459    0.0000 C   0  0
    2.6003   -1.4977    0.0000 O   0  0
    1.2990   -0.7500    0.0000 C   0  0
    1.2990    0.7500    0.0000 C   0  0
    0.0000    1.5000    0.0000 C   0  0
   -0.0031    3.0008    0.0000 C   0  0
    1.2946    3.7531    0.0000 O   0  0
   -1.3039    3.7494    0.0000 C   0  0
   -1.4470    5.2297    0.0000 C   0  0
   -2.9153    5.5365    0.0000 N   0  0
   -3.6607    4.2349    0.0000 C   0  0
   -5.1527    4.0728    0.0000 C   0  0
   -6.1233    5.2100    0.0000 C   0  0
   -7.5981    4.9362    0.0000 C   0  0
   -8.0984    3.5221    0.0000 C   0  0
   -9.5735    3.2452    0.0000 N   0  0
  -10.0718    1.8304    0.0000 C   0  0
  -10.5499    4.3839    0.0000 C   0  0
   -7.1240    2.3818    0.0000 C   0  0
   -5.6491    2.6555    0.0000 C   0  0
   -2.6532    3.1236    0.0000 N   0  0
   -1.2990    0.7500    0.0000 C   0  0
   -1.2990   -0.7500    0.0000 C   0  0
   -2.6003   -1.4978    0.0000 O   0  0
   -3.8983   -0.7459    0.0000 C   0  0
    0.0000   -1.5000    0.0000 C   0  0
    0.0031   -3.0008    0.0000 O   0  0
    1.3032   -3.7490    0.0000 C   0  0
  1  2  1  0
  2  3  1  0
  3  4  2  0
  4  5  1  0
  5  6  1  0
  6  7  2  0
  6  8  1  0
  8  9  2  0
  9 10  1  0
 10 11  1  0
 11 12  1  0
 12 13  2  0
 13 14  1  0
 14 15  2  0
 15 16  1  0
 16 17  1  0
 16 18  1  0
 15 19  1  0
 19 20  2  0
 20 12  1  0
 11 21  2  0
 21  8  1  0
  5 22  2  0
 22 23  1  0
 23 24  1  0
 24 25  1  0
 23 26  2  0
 26  3  1  0
 26 27  1  0
 27 28  1  0
M  END
> <assay_chembl_id>
CHEMBL1272403

> <assay_description>
Cytotoxicity against human LNCAP cells after 48 hrs by sulforhodamine B assay

> <document_journal>
J Med Chem

> <molecule_chembl_id>
CHEMBL1272183

> <standard_value>
58

> <IC50_uM>
0.058

> <Activity>
Yes

> <Canonical_Smiles>
COc1cc(C(=O)c2c[nH]c(-c3ccc(N(C)C)cc3)n2)cc(OC)c1OC

$$$$

  SciTegic03142313312D

 23 25  0  0  0  0            999 V2000
    2.5951   -3.0031    0.0000 C   0  0
    2.5973   -1.5031    0.0000 N   0  0
    3.8976   -0.7553    0.0000 C   0  0
    1.2990   -0.7500    0.0000 C   0  0
    1.2990    0.7500    0.0000 C   0  0
    0.0000    1.5000    0.0000 C   0  0
   -1.2990    0.7500    0.0000 C   0  0
   -2.5987    1.5004    0.0000 C   0  0
   -2.7390    2.9810    0.0000 N   0  0
   -4.2067    3.2905    0.0000 C   0  0
   -4.8211    4.6570    0.0000 C   0  0
   -3.9435    5.8735    0.0000 O   0  0
   -6.3142    4.8094    0.0000 C   0  0
   -6.9313    6.1766    0.0000 C   0  0
   -8.4239    6.3258    0.0000 C   0  0
   -9.2994    5.1078    0.0000 C   0  0
  -10.7919    5.2570    0.0000 F   0  0
   -8.6823    3.7406    0.0000 C   0  0
   -7.1898    3.5914    0.0000 C   0  0
   -4.9546    1.9903    0.0000 C   0  0
   -3.9492    0.8772    0.0000 N   0  0
   -1.2990   -0.7500    0.0000 C   0  0
    0.0000   -1.5000    0.0000 C   0  0
  1  2  1  0
  2  3  1  0
  2  4  1  0
  4  5  2  0
  5  6  1  0
  6  7  2  0
  7  8  1  0
  8  9  2  0
  9 10  1  0
 10 11  1  0
 11 12  2  0
 11 13  1  0
 13 14  2  0
 14 15  1  0
 15 16  2  0
 16 17  1  0
 16 18  1  0
 18 19  2  0
 19 13  1  0
 10 20  2  0
 20 21  1  0
 21  8  1  0
  7 22  1  0
 22 23  2  0
 23  4  1  0
M  END
> <assay_chembl_id>
CHEMBL1272403

> <assay_description>
Cytotoxicity against human LNCAP cells after 48 hrs by sulforhodamine B assay

> <document_journal>
J Med Chem

> <molecule_chembl_id>
CHEMBL1272184

> <standard_value>
57

> <IC50_uM>
0.057

> <Activity>
Yes

> <Canonical_Smiles>
CN(C)c1ccc(-c2nc(C(=O)c3ccc(F)cc3)c[nH]2)cc1

$$$$

  SciTegic03142313312D

 29 31  0  0  0  0            999 V2000
    3.8983   -0.7459    0.0000 C   0  0
    2.6003   -1.4977    0.0000 O   0  0
    1.2990   -0.7500    0.0000 C   0  0
    1.2990    0.7500    0.0000 C   0  0
    0.0000    1.5000    0.0000 C   0  0
   -1.2990    0.7500    0.0000 C   0  0
   -2.5987    1.5004    0.0000 C   0  0
   -2.7390    2.9810    0.0000 N   0  0
   -4.2067    3.2905    0.0000 C   0  0
   -4.8211    4.6570    0.0000 C   0  0
   -3.9435    5.8735    0.0000 O   0  0
   -6.3142    4.8094    0.0000 C   0  0
   -6.9313    6.1766    0.0000 C   0  0
   -8.4239    6.3258    0.0000 C   0  0
   -9.0384    7.6950    0.0000 O   0  0
   -8.1612    8.9118    0.0000 C   0  0
   -9.2994    5.1078    0.0000 C   0  0
  -10.7931    5.2541    0.0000 O   0  0
  -11.6669    4.0348    0.0000 C   0  0
   -8.6823    3.7406    0.0000 C   0  0
   -9.5558    2.5202    0.0000 O   0  0
   -8.9369    1.1538    0.0000 C   0  0
   -7.1898    3.5914    0.0000 C   0  0
   -4.9546    1.9903    0.0000 C   0  0
   -3.9492    0.8772    0.0000 N   0  0
   -1.2990   -0.7500    0.0000 C   0  0
    0.0000   -1.5000    0.0000 C   0  0
   -0.0031   -3.0008    0.0000 O   0  0
   -1.3032   -3.7490    0.0000 C   0  0
  1  2  1  0
  2  3  1  0
  3  4  2  0
  4  5  1  0
  5  6  2  0
  6  7  1  0
  7  8  2  0
  8  9  1  0
  9 10  1  0
 10 11  2  0
 10 12  1  0
 12 13  2  0
 13 14  1  0
 14 15  1  0
 15 16  1  0
 14 17  2  0
 17 18  1  0
 18 19  1  0
 17 20  1  0
 20 21  1  0
 21 22  1  0
 20 23  2  0
 23 12  1  0
  9 24  2  0
 24 25  1  0
 25  7  1  0
  6 26  1  0
 26 27  2  0
 27  3  1  0
 27 28  1  0
 28 29  1  0
M  END
> <assay_chembl_id>
CHEMBL1272403

> <assay_description>
Cytotoxicity against human LNCAP cells after 48 hrs by sulforhodamine B assay

> <document_journal>
J Med Chem

> <molecule_chembl_id>
CHEMBL1272239

> <standard_value>
121

> <IC50_uM>
0.121

> <Activity>
Yes

> <Canonical_Smiles>
COc1ccc(-c2nc(C(=O)c3cc(OC)c(OC)c(OC)c3)c[nH]2)cc1OC

$$$$

  SciTegic03142313312D

 28 31  0  0  0  0            999 V2000
    3.8976   -0.7553    0.0000 O   0  0
    2.5973   -1.5031    0.0000 C   0  0
    1.2990   -0.7500    0.0000 C   0  0
    1.2990    0.7500    0.0000 C   0  0
    0.0000    1.5000    0.0000 C   0  0
   -1.2990    0.7500    0.0000 C   0  0
   -2.5981    1.5000    0.0000 F   0  0
   -1.2990   -0.7500    0.0000 C   0  0
    0.0000   -1.5000    0.0000 C   0  0
    2.5951   -3.0039    0.0000 C   0  0
    3.8056   -3.8679    0.0000 C   0  0
    3.3372   -5.2929    0.0000 N   0  0
    1.8372   -5.2877    0.0000 C   0  0
    0.9508   -6.4988    0.0000 C   0  0
    1.4504   -7.9079    0.0000 C   0  0
    0.4759   -9.0482    0.0000 C   0  0
   -0.9989   -8.7745    0.0000 C   0  0
   -1.9762   -9.9135    0.0000 O   0  0
   -3.4515   -9.6375    0.0000 C   0  0
   -4.4288  -10.7765    0.0000 C   0  0
   -5.9037  -10.5028    0.0000 C   0  0
   -6.8781  -11.6432    0.0000 C   0  0
   -6.3778  -13.0573    0.0000 C   0  0
   -4.9030  -13.3310    0.0000 C   0  0
   -3.9285  -12.1907    0.0000 C   0  0
   -1.4993   -7.3604    0.0000 C   0  0
   -0.5248   -6.2201    0.0000 C   0  0
    1.3786   -3.8595    0.0000 N   0  0
  1  2  2  0
  2  3  1  0
  3  4  2  0
  4  5  1  0
  5  6  2  0
  6  7  1  0
  6  8  1  0
  8  9  2  0
  9  3  1  0
  2 10  1  0
 10 11  2  0
 11 12  1  0
 12 13  1  0
 13 14  1  0
 14 15  2  0
 15 16  1  0
 16 17  2  0
 17 18  1  0
 18 19  1  0
 19 20  1  0
 20 21  2  0
 21 22  1  0
 22 23  2  0
 23 24  1  0
 24 25  2  0
 25 20  1  0
 17 26  1  0
 26 27  2  0
 27 14  1  0
 13 28  2  0
 28 10  1  0
M  END
> <assay_chembl_id>
CHEMBL1272403

> <assay_description>
Cytotoxicity against human LNCAP cells after 48 hrs by sulforhodamine B assay

> <document_journal>
J Med Chem

> <molecule_chembl_id>
CHEMBL1271525

> <standard_value>
44

> <IC50_uM>
0.044

> <Activity>
Yes

> <Canonical_Smiles>
O=C(c1ccc(F)cc1)c1c[nH]c(-c2ccc(OCc3ccccc3)cc2)n1

$$$$

  SciTegic03142313312D

 29 31  0  0  0  0            999 V2000
    3.8983   -0.7459    0.0000 C   0  0
    2.6003   -1.4977    0.0000 O   0  0
    1.2990   -0.7500    0.0000 C   0  0
    1.2990    0.7500    0.0000 C   0  0
    0.0000    1.5000    0.0000 C   0  0
   -0.0031    3.0008    0.0000 C   0  0
    1.2946    3.7531    0.0000 O   0  0
   -1.3039    3.7494    0.0000 C   0  0
   -1.4470    5.2297    0.0000 C   0  0
   -2.9153    5.5365    0.0000 N   0  0
   -3.6607    4.2349    0.0000 C   0  0
   -5.1527    4.0728    0.0000 C   0  0
   -6.1233    5.2100    0.0000 C   0  0
   -7.5981    4.9362    0.0000 C   0  0
   -8.0984    3.5221    0.0000 C   0  0
   -9.5740    3.2482    0.0000 C   0  0
  -10.5492    4.3880    0.0000 F   0  0
  -10.0739    1.8340    0.0000 F   0  0
  -11.0487    2.9738    0.0000 F   0  0
   -7.1240    2.3818    0.0000 C   0  0
   -5.6491    2.6555    0.0000 C   0  0
   -2.6532    3.1236    0.0000 N   0  0
   -1.2990    0.7500    0.0000 C   0  0
   -1.2990   -0.7500    0.0000 C   0  0
   -2.6003   -1.4978    0.0000 O   0  0
   -3.8983   -0.7459    0.0000 C   0  0
    0.0000   -1.5000    0.0000 C   0  0
    0.0031   -3.0008    0.0000 O   0  0
    1.3032   -3.7490    0.0000 C   0  0
  1  2  1  0
  2  3  1  0
  3  4  2  0
  4  5  1  0
  5  6  1  0
  6  7  2  0
  6  8  1  0
  8  9  2  0
  9 10  1  0
 10 11  1  0
 11 12  1  0
 12 13  2  0
 13 14  1  0
 14 15  2  0
 15 16  1  0
 16 17  1  0
 16 18  1  0
 16 19  1  0
 15 20  1  0
 20 21  2  0
 21 12  1  0
 11 22  2  0
 22  8  1  0
  5 23  2  0
 23 24  1  0
 24 25  1  0
 25 26  1  0
 24 27  2  0
 27  3  1  0
 27 28  1  0
 28 29  1  0
M  END
> <assay_chembl_id>
CHEMBL1272403

> <assay_description>
Cytotoxicity against human LNCAP cells after 48 hrs by sulforhodamine B assay

> <document_journal>
J Med Chem

> <molecule_chembl_id>
CHEMBL1271580

> <standard_value>
134

> <IC50_uM>
0.134

> <Activity>
Yes

> <Canonical_Smiles>
COc1cc(C(=O)c2c[nH]c(-c3ccc(C(F)(F)F)cc3)n2)cc(OC)c1OC

$$$$

  SciTegic03142313312D

 29 32  0  0  0  0            999 V2000
    3.8976   -0.7553    0.0000 O   0  0
    2.5973   -1.5031    0.0000 C   0  0
    1.2990   -0.7500    0.0000 C   0  0
    1.2990    0.7500    0.0000 C   0  0
    0.0000    1.5000    0.0000 C   0  0
   -1.2990    0.7500    0.0000 C   0  0
   -2.5981    1.5000    0.0000 F   0  0
   -1.2990   -0.7500    0.0000 C   0  0
    0.0000   -1.5000    0.0000 C   0  0
    2.5951   -3.0039    0.0000 C   0  0
    1.3786   -3.8595    0.0000 C   0  0
    1.8372   -5.2877    0.0000 N   0  0
    3.3372   -5.2929    0.0000 C   0  0
    4.2151   -6.5101    0.0000 C   0  0
    3.7057   -7.9157    0.0000 C   0  0
    4.6723   -9.0628    0.0000 C   0  0
    6.1489   -8.7993    0.0000 C   0  0
    6.6591   -7.3888    0.0000 C   0  0
    5.6926   -6.2416    0.0000 C   0  0
    3.8056   -3.8679    0.0000 N   0  0
    5.2285   -3.3990    0.0000 S   0  0
    5.5337   -1.9304    0.0000 O   0  0
    4.1094   -2.4002    0.0000 O   0  0
    6.3487   -4.3978    0.0000 C   0  0
    6.0440   -5.8665    0.0000 C   0  0
    7.1636   -6.8648    0.0000 C   0  0
    8.5879   -6.3943    0.0000 C   0  0
    8.8926   -4.9256    0.0000 C   0  0
    7.7731   -3.9273    0.0000 C   0  0
  1  2  2  0
  2  3  1  0
  3  4  2  0
  4  5  1  0
  5  6  2  0
  6  7  1  0
  6  8  1  0
  8  9  2  0
  9  3  1  0
  2 10  1  0
 10 11  2  0
 11 12  1  0
 12 13  2  0
 13 14  1  0
 14 15  2  0
 15 16  1  0
 16 17  2  0
 17 18  1  0
 18 19  2  0
 19 14  1  0
 13 20  1  0
 20 10  1  0
 20 21  1  0
 21 22  2  0
 21 23  2  0
 21 24  1  0
 24 25  2  0
 25 26  1  0
 26 27  2  0
 27 28  1  0
 28 29  2  0
 29 24  1  0
M  END
> <assay_chembl_id>
CHEMBL1272403

> <assay_description>
Cytotoxicity against human LNCAP cells after 48 hrs by sulforhodamine B assay

> <document_journal>
J Med Chem

> <molecule_chembl_id>
CHEMBL1271740

> <standard_value>
573

> <IC50_uM>
0.573

> <Activity>
Yes

> <Canonical_Smiles>
O=C(c1ccc(F)cc1)c1cnc(-c2ccccc2)n1S(=O)(=O)c1ccccc1

$$$$

  SciTegic03142313312D

 31 34  0  0  0  0            999 V2000
    2.5951   -3.0031    0.0000 C   0  0
    2.5973   -1.5031    0.0000 O   0  0
    1.2990   -0.7500    0.0000 C   0  0
    1.2990    0.7500    0.0000 C   0  0
    0.0000    1.5000    0.0000 C   0  0
   -1.2990    0.7500    0.0000 C   0  0
   -2.5987    1.5004    0.0000 C   0  0
   -3.9492    0.8772    0.0000 N   0  0
   -4.9546    1.9903    0.0000 C   0  0
   -4.2067    3.2905    0.0000 C   0  0
   -4.8211    4.6570    0.0000 C   0  0
   -3.9435    5.8735    0.0000 O   0  0
   -6.3142    4.8094    0.0000 C   0  0
   -6.9313    6.1766    0.0000 C   0  0
   -8.4239    6.3258    0.0000 C   0  0
   -9.2994    5.1078    0.0000 C   0  0
  -10.7919    5.2571    0.0000 F   0  0
   -8.6823    3.7406    0.0000 C   0  0
   -7.1898    3.5914    0.0000 C   0  0
   -2.7390    2.9810    0.0000 N   0  0
   -1.6195    3.9767    0.0000 S   0  0
   -0.1960    3.5040    0.0000 O   0  0
   -1.3169    2.5076    0.0000 O   0  0
   -1.9217    5.4468    0.0000 C   0  0
   -3.3451    5.9200    0.0000 C   0  0
   -3.6470    7.3893    0.0000 C   0  0
   -2.5256    8.3854    0.0000 C   0  0
   -1.1021    7.9122    0.0000 C   0  0
   -0.8002    6.4430    0.0000 C   0  0
   -1.2990   -0.7500    0.0000 C   0  0
    0.0000   -1.5000    0.0000 C   0  0
  1  2  1  0
  2  3  1  0
  3  4  2  0
  4  5  1  0
  5  6  2  0
  6  7  1  0
  7  8  2  0
  8  9  1  0
  9 10  2  0
 10 11  1  0
 11 12  2  0
 11 13  1  0
 13 14  2  0
 14 15  1  0
 15 16  2  0
 16 17  1  0
 16 18  1  0
 18 19  2  0
 19 13  1  0
 10 20  1  0
 20  7  1  0
 20 21  1  0
 21 22  2  0
 21 23  2  0
 21 24  1  0
 24 25  2  0
 25 26  1  0
 26 27  2  0
 27 28  1  0
 28 29  2  0
 29 24  1  0
  6 30  1  0
 30 31  2  0
 31  3  1  0
M  END
> <assay_chembl_id>
CHEMBL1272403

> <assay_description>
Cytotoxicity against human LNCAP cells after 48 hrs by sulforhodamine B assay

> <document_journal>
J Med Chem

> <molecule_chembl_id>
CHEMBL1271800

> <standard_value>
31

> <IC50_uM>
0.031

> <Activity>
Yes

> <Canonical_Smiles>
COc1ccc(-c2ncc(C(=O)c3ccc(F)cc3)n2S(=O)(=O)c2ccccc2)cc1

$$$$

  SciTegic03142313312D

 30 33  0  0  0  0            999 V2000
    2.5981   -1.5000    0.0000 C   0  0
    1.2990   -0.7500    0.0000 C   0  0
    1.2990    0.7500    0.0000 C   0  0
    0.0000    1.5000    0.0000 C   0  0
   -1.2990    0.7500    0.0000 C   0  0
   -2.5987    1.5004    0.0000 C   0  0
   -3.9492    0.8772    0.0000 N   0  0
   -4.9546    1.9903    0.0000 C   0  0
   -4.2067    3.2905    0.0000 C   0  0
   -4.8211    4.6570    0.0000 C   0  0
   -3.9435    5.8735    0.0000 O   0  0
   -6.3142    4.8094    0.0000 C   0  0
   -6.9313    6.1766    0.0000 C   0  0
   -8.4239    6.3258    0.0000 C   0  0
   -9.2994    5.1078    0.0000 C   0  0
  -10.7919    5.2571    0.0000 F   0  0
   -8.6823    3.7406    0.0000 C   0  0
   -7.1898    3.5914    0.0000 C   0  0
   -2.7390    2.9810    0.0000 N   0  0
   -1.6195    3.9767    0.0000 S   0  0
   -0.1960    3.5040    0.0000 O   0  0
   -1.3169    2.5076    0.0000 O   0  0
   -1.9217    5.4468    0.0000 C   0  0
   -3.3451    5.9200    0.0000 C   0  0
   -3.6470    7.3893    0.0000 C   0  0
   -2.5256    8.3854    0.0000 C   0  0
   -1.1021    7.9122    0.0000 C   0  0
   -0.8002    6.4430    0.0000 C   0  0
   -1.2990   -0.7500    0.0000 C   0  0
    0.0000   -1.5000    0.0000 C   0  0
  1  2  1  0
  2  3  2  0
  3  4  1  0
  4  5  2  0
  5  6  1  0
  6  7  2  0
  7  8  1  0
  8  9  2  0
  9 10  1  0
 10 11  2  0
 10 12  1  0
 12 13  2  0
 13 14  1  0
 14 15  2  0
 15 16  1  0
 15 17  1  0
 17 18  2  0
 18 12  1  0
  9 19  1  0
 19  6  1  0
 19 20  1  0
 20 21  2  0
 20 22  2  0
 20 23  1  0
 23 24  2  0
 24 25  1  0
 25 26  2  0
 26 27  1  0
 27 28  2  0
 28 23  1  0
  5 29  1  0
 29 30  2  0
 30  2  1  0
M  END
> <assay_chembl_id>
CHEMBL1272403

> <assay_description>
Cytotoxicity against human LNCAP cells after 48 hrs by sulforhodamine B assay

> <document_journal>
J Med Chem

> <molecule_chembl_id>
CHEMBL1271801

> <standard_value>
55

> <IC50_uM>
0.055

> <Activity>
Yes

> <Canonical_Smiles>
Cc1ccc(-c2ncc(C(=O)c3ccc(F)cc3)n2S(=O)(=O)c2ccccc2)cc1

$$$$

  SciTegic03142313312D

 30 33  0  0  0  0            999 V2000
    3.8976   -0.7553    0.0000 O   0  0
    2.5973   -1.5031    0.0000 C   0  0
    1.2990   -0.7500    0.0000 C   0  0
    1.2990    0.7500    0.0000 C   0  0
    0.0000    1.5000    0.0000 C   0  0
   -1.2990    0.7500    0.0000 C   0  0
   -2.5981    1.5000    0.0000 F   0  0
   -1.2990   -0.7500    0.0000 C   0  0
    0.0000   -1.5000    0.0000 C   0  0
    2.5951   -3.0039    0.0000 C   0  0
    1.3786   -3.8595    0.0000 C   0  0
    1.8372   -5.2877    0.0000 N   0  0
    3.3372   -5.2929    0.0000 C   0  0
    4.2151   -6.5101    0.0000 C   0  0
    3.7057   -7.9157    0.0000 C   0  0
    4.6723   -9.0628    0.0000 C   0  0
    6.1489   -8.7993    0.0000 C   0  0
    7.1155   -9.9464    0.0000 Cl  0  0
    6.6591   -7.3888    0.0000 C   0  0
    5.6926   -6.2416    0.0000 C   0  0
    3.8056   -3.8679    0.0000 N   0  0
    5.2285   -3.3990    0.0000 S   0  0
    5.5337   -1.9304    0.0000 O   0  0
    4.1094   -2.4002    0.0000 O   0  0
    6.3487   -4.3978    0.0000 C   0  0
    6.0440   -5.8665    0.0000 C   0  0
    7.1636   -6.8648    0.0000 C   0  0
    8.5879   -6.3943    0.0000 C   0  0
    8.8926   -4.9256    0.0000 C   0  0
    7.7731   -3.9273    0.0000 C   0  0
  1  2  2  0
  2  3  1  0
  3  4  2  0
  4  5  1  0
  5  6  2  0
  6  7  1  0
  6  8  1  0
  8  9  2  0
  9  3  1  0
  2 10  1  0
 10 11  2  0
 11 12  1  0
 12 13  2  0
 13 14  1  0
 14 15  2  0
 15 16  1  0
 16 17  2  0
 17 18  1  0
 17 19  1  0
 19 20  2  0
 20 14  1  0
 13 21  1  0
 21 10  1  0
 21 22  1  0
 22 23  2  0
 22 24  2  0
 22 25  1  0
 25 26  2  0
 26 27  1  0
 27 28  2  0
 28 29  1  0
 29 30  2  0
 30 25  1  0
M  END
> <assay_chembl_id>
CHEMBL1272403

> <assay_description>
Cytotoxicity against human LNCAP cells after 48 hrs by sulforhodamine B assay

> <document_journal>
J Med Chem

> <molecule_chembl_id>
CHEMBL1271913

> <standard_value>
48

> <IC50_uM>
0.048

> <Activity>
Yes

> <Canonical_Smiles>
O=C(c1ccc(F)cc1)c1cnc(-c2ccc(Cl)cc2)n1S(=O)(=O)c1ccccc1

$$$$

  SciTegic03142313312D

 37 40  0  0  0  0            999 V2000
    3.8983   -0.7459    0.0000 C   0  0
    2.6003   -1.4977    0.0000 O   0  0
    1.2990   -0.7500    0.0000 C   0  0
    1.2990    0.7500    0.0000 C   0  0
    0.0000    1.5000    0.0000 C   0  0
   -0.0031    3.0008    0.0000 C   0  0
    1.2946    3.7531    0.0000 O   0  0
   -1.3039    3.7494    0.0000 C   0  0
   -2.6532    3.1236    0.0000 C   0  0
   -3.6607    4.2349    0.0000 N   0  0
   -2.9153    5.5365    0.0000 C   0  0
   -3.5304    6.9054    0.0000 C   0  0
   -5.0024    7.1671    0.0000 C   0  0
   -5.5125    8.5777    0.0000 C   0  0
   -4.5460    9.7248    0.0000 C   0  0
   -5.0536   11.1372    0.0000 N   0  0
   -4.0855   12.2829    0.0000 C   0  0
   -6.5298   11.4032    0.0000 C   0  0
   -3.0694    9.4613    0.0000 C   0  0
   -2.5592    8.0507    0.0000 C   0  0
   -1.4470    5.2297    0.0000 N   0  0
   -0.3294    6.2275    0.0000 S   0  0
    1.0951    5.7575    0.0000 O   0  0
   -0.0240    4.7590    0.0000 O   0  0
   -0.6343    7.6971    0.0000 C   0  0
   -2.0586    8.1675    0.0000 C   0  0
   -2.3633    9.6363    0.0000 C   0  0
   -1.2437   10.6345    0.0000 C   0  0
    0.1806   10.1640    0.0000 C   0  0
    0.4853    8.6953    0.0000 C   0  0
   -1.2990    0.7500    0.0000 C   0  0
   -1.2990   -0.7500    0.0000 C   0  0
   -2.6003   -1.4978    0.0000 O   0  0
   -3.8983   -0.7459    0.0000 C   0  0
    0.0000   -1.5000    0.0000 C   0  0
    0.0031   -3.0008    0.0000 O   0  0
    1.3032   -3.7490    0.0000 C   0  0
  1  2  1  0
  2  3  1  0
  3  4  2  0
  4  5  1  0
  5  6  1  0
  6  7  2  0
  6  8  1  0
  8  9  2  0
  9 10  1  0
 10 11  2  0
 11 12  1  0
 12 13  2  0
 13 14  1  0
 14 15  2  0
 15 16  1  0
 16 17  1  0
 16 18  1  0
 15 19  1  0
 19 20  2  0
 20 12  1  0
 11 21  1  0
 21  8  1  0
 21 22  1  0
 22 23  2  0
 22 24  2  0
 22 25  1  0
 25 26  2  0
 26 27  1  0
 27 28  2  0
 28 29  1  0
 29 30  2  0
 30 25  1  0
  5 31  2  0
 31 32  1  0
 32 33  1  0
 33 34  1  0
 32 35  2  0
 35  3  1  0
 35 36  1  0
 36 37  1  0
M  END
> <assay_chembl_id>
CHEMBL1272403

> <assay_description>
Cytotoxicity against human LNCAP cells after 48 hrs by sulforhodamine B assay

> <document_journal>
J Med Chem

> <molecule_chembl_id>
CHEMBL1271914

> <standard_value>
62

> <IC50_uM>
0.062

> <Activity>
Yes

> <Canonical_Smiles>
COc1cc(C(=O)c2cnc(-c3ccc(N(C)C)cc3)n2S(=O)(=O)c2ccccc2)cc(OC)c1OC

$$$$

  SciTegic03142313312D

 32 35  0  0  0  0            999 V2000
    2.5951   -3.0031    0.0000 C   0  0
    2.5973   -1.5031    0.0000 N   0  0
    3.8976   -0.7553    0.0000 C   0  0
    1.2990   -0.7500    0.0000 C   0  0
    1.2990    0.7500    0.0000 C   0  0
    0.0000    1.5000    0.0000 C   0  0
   -1.2990    0.7500    0.0000 C   0  0
   -2.5987    1.5004    0.0000 C   0  0
   -3.9492    0.8772    0.0000 N   0  0
   -4.9546    1.9903    0.0000 C   0  0
   -4.2067    3.2905    0.0000 C   0  0
   -4.8211    4.6570    0.0000 C   0  0
   -3.9435    5.8735    0.0000 O   0  0
   -6.3142    4.8094    0.0000 C   0  0
   -6.9313    6.1766    0.0000 C   0  0
   -8.4239    6.3258    0.0000 C   0  0
   -9.2994    5.1078    0.0000 C   0  0
  -10.7919    5.2571    0.0000 F   0  0
   -8.6823    3.7406    0.0000 C   0  0
   -7.1898    3.5914    0.0000 C   0  0
   -2.7390    2.9810    0.0000 N   0  0
   -1.6195    3.9767    0.0000 S   0  0
   -0.1960    3.5040    0.0000 O   0  0
   -1.3169    2.5076    0.0000 O   0  0
   -1.9217    5.4468    0.0000 C   0  0
   -3.3451    5.9200    0.0000 C   0  0
   -3.6470    7.3893    0.0000 C   0  0
   -2.5256    8.3854    0.0000 C   0  0
   -1.1021    7.9122    0.0000 C   0  0
   -0.8002    6.4430    0.0000 C   0  0
   -1.2990   -0.7500    0.0000 C   0  0
    0.0000   -1.5000    0.0000 C   0  0
  1  2  1  0
  2  3  1  0
  2  4  1  0
  4  5  2  0
  5  6  1  0
  6  7  2  0
  7  8  1  0
  8  9  2  0
  9 10  1  0
 10 11  2  0
 11 12  1  0
 12 13  2  0
 12 14  1  0
 14 15  2  0
 15 16  1  0
 16 17  2  0
 17 18  1  0
 17 19  1  0
 19 20  2  0
 20 14  1  0
 11 21  1  0
 21  8  1  0
 21 22  1  0
 22 23  2  0
 22 24  2  0
 22 25  1  0
 25 26  2  0
 26 27  1  0
 27 28  2  0
 28 29  1  0
 29 30  2  0
 30 25  1  0
  7 31  1  0
 31 32  2  0
 32  4  1  0
M  END
> <assay_chembl_id>
CHEMBL1272403

> <assay_description>
Cytotoxicity against human LNCAP cells after 48 hrs by sulforhodamine B assay

> <document_journal>
J Med Chem

> <molecule_chembl_id>
CHEMBL1271969

> <standard_value>
56

> <IC50_uM>
0.056

> <Activity>
Yes

> <Canonical_Smiles>
CN(C)c1ccc(-c2ncc(C(=O)c3ccc(F)cc3)n2S(=O)(=O)c2ccccc2)cc1

$$$$

  SciTegic03142313312D

 38 41  0  0  0  0            999 V2000
    3.8983   -0.7459    0.0000 C   0  0
    2.6003   -1.4977    0.0000 O   0  0
    1.2990   -0.7500    0.0000 C   0  0
    1.2990    0.7500    0.0000 C   0  0
    0.0000    1.5000    0.0000 C   0  0
   -1.2990    0.7500    0.0000 C   0  0
   -2.5987    1.5004    0.0000 C   0  0
   -3.9492    0.8772    0.0000 N   0  0
   -4.9546    1.9903    0.0000 C   0  0
   -4.2067    3.2905    0.0000 C   0  0
   -4.8211    4.6570    0.0000 C   0  0
   -3.9435    5.8735    0.0000 O   0  0
   -6.3142    4.8094    0.0000 C   0  0
   -6.9313    6.1766    0.0000 C   0  0
   -8.4239    6.3258    0.0000 C   0  0
   -9.0384    7.6951    0.0000 O   0  0
   -8.1612    8.9118    0.0000 C   0  0
   -9.2994    5.1078    0.0000 C   0  0
  -10.7931    5.2541    0.0000 O   0  0
  -11.6669    4.0349    0.0000 C   0  0
   -8.6823    3.7406    0.0000 C   0  0
   -9.5558    2.5202    0.0000 O   0  0
   -8.9369    1.1538    0.0000 C   0  0
   -7.1898    3.5914    0.0000 C   0  0
   -2.7390    2.9810    0.0000 N   0  0
   -1.6195    3.9767    0.0000 S   0  0
   -0.1960    3.5040    0.0000 O   0  0
   -1.3169    2.5076    0.0000 O   0  0
   -1.9217    5.4468    0.0000 C   0  0
   -3.3451    5.9200    0.0000 C   0  0
   -3.6470    7.3893    0.0000 C   0  0
   -2.5256    8.3854    0.0000 C   0  0
   -1.1021    7.9122    0.0000 C   0  0
   -0.8002    6.4430    0.0000 C   0  0
   -1.2990   -0.7500    0.0000 C   0  0
    0.0000   -1.5000    0.0000 C   0  0
   -0.0031   -3.0008    0.0000 O   0  0
   -1.3032   -3.7490    0.0000 C   0  0
  1  2  1  0
  2  3  1  0
  3  4  2  0
  4  5  1  0
  5  6  2  0
  6  7  1  0
  7  8  2  0
  8  9  1  0
  9 10  2  0
 10 11  1  0
 11 12  2  0
 11 13  1  0
 13 14  2  0
 14 15  1  0
 15 16  1  0
 16 17  1  0
 15 18  2  0
 18 19  1  0
 19 20  1  0
 18 21  1  0
 21 22  1  0
 22 23  1  0
 21 24  2  0
 24 13  1  0
 10 25  1  0
 25  7  1  0
 25 26  1  0
 26 27  2  0
 26 28  2  0
 26 29  1  0
 29 30  2  0
 30 31  1  0
 31 32  2  0
 32 33  1  0
 33 34  2  0
 34 29  1  0
  6 35  1  0
 35 36  2  0
 36  3  1  0
 36 37  1  0
 37 38  1  0
M  END
> <assay_chembl_id>
CHEMBL1272403

> <assay_description>
Cytotoxicity against human LNCAP cells after 48 hrs by sulforhodamine B assay

> <document_journal>
J Med Chem

> <molecule_chembl_id>
CHEMBL1271970

> <standard_value>
114

> <IC50_uM>
0.114

> <Activity>
Yes

> <Canonical_Smiles>
COc1ccc(-c2ncc(C(=O)c3cc(OC)c(OC)c(OC)c3)n2S(=O)(=O)c2ccccc2)cc1OC

$$$$

  SciTegic03142313312D

 37 41  0  0  0  0            999 V2000
    3.8976   -0.7553    0.0000 O   0  0
    2.5973   -1.5031    0.0000 C   0  0
    1.2990   -0.7500    0.0000 C   0  0
    1.2990    0.7500    0.0000 C   0  0
    0.0000    1.5000    0.0000 C   0  0
   -1.2990    0.7500    0.0000 C   0  0
   -2.5981    1.5000    0.0000 F   0  0
   -1.2990   -0.7500    0.0000 C   0  0
    0.0000   -1.5000    0.0000 C   0  0
    2.5951   -3.0039    0.0000 C   0  0
    1.3786   -3.8595    0.0000 C   0  0
    1.8372   -5.2877    0.0000 N   0  0
    3.3372   -5.2929    0.0000 C   0  0
    4.2151   -6.5101    0.0000 C   0  0
    3.7057   -7.9157    0.0000 C   0  0
    4.6723   -9.0628    0.0000 C   0  0
    6.1489   -8.7993    0.0000 C   0  0
    7.1184   -9.9451    0.0000 O   0  0
    8.5955   -9.6794    0.0000 C   0  0
    9.5649  -10.8251    0.0000 C   0  0
   11.0416  -10.5617    0.0000 C   0  0
   12.0081  -11.7088    0.0000 C   0  0
   11.4980  -13.1194    0.0000 C   0  0
   10.0213  -13.3829    0.0000 C   0  0
    9.0548  -12.2358    0.0000 C   0  0
    6.6591   -7.3888    0.0000 C   0  0
    5.6926   -6.2416    0.0000 C   0  0
    3.8056   -3.8679    0.0000 N   0  0
    5.2285   -3.3990    0.0000 S   0  0
    5.5337   -1.9304    0.0000 O   0  0
    4.1094   -2.4002    0.0000 O   0  0
    6.3487   -4.3978    0.0000 C   0  0
    6.0440   -5.8665    0.0000 C   0  0
    7.1636   -6.8648    0.0000 C   0  0
    8.5879   -6.3943    0.0000 C   0  0
    8.8926   -4.9256    0.0000 C   0  0
    7.7731   -3.9273    0.0000 C   0  0
  1  2  2  0
  2  3  1  0
  3  4  2  0
  4  5  1  0
  5  6  2  0
  6  7  1  0
  6  8  1  0
  8  9  2  0
  9  3  1  0
  2 10  1  0
 10 11  2  0
 11 12  1  0
 12 13  2  0
 13 14  1  0
 14 15  2  0
 15 16  1  0
 16 17  2  0
 17 18  1  0
 18 19  1  0
 19 20  1  0
 20 21  2  0
 21 22  1  0
 22 23  2  0
 23 24  1  0
 24 25  2  0
 25 20  1  0
 17 26  1  0
 26 27  2  0
 27 14  1  0
 13 28  1  0
 28 10  1  0
 28 29  1  0
 29 30  2  0
 29 31  2  0
 29 32  1  0
 32 33  2  0
 33 34  1  0
 34 35  2  0
 35 36  1  0
 36 37  2  0
 37 32  1  0
M  END
> <assay_chembl_id>
CHEMBL1272403

> <assay_description>
Cytotoxicity against human LNCAP cells after 48 hrs by sulforhodamine B assay

> <document_journal>
J Med Chem

> <molecule_chembl_id>
CHEMBL1272082

> <standard_value>
35

> <IC50_uM>
0.035

> <Activity>
Yes

> <Canonical_Smiles>
O=C(c1ccc(F)cc1)c1cnc(-c2ccc(OCc3ccccc3)cc2)n1S(=O)(=O)c1ccccc1

$$$$

  SciTegic03142313312D

139143  0  0  1  0            999 V2000
   26.2404   10.9375    0.0000 C   0  0
   24.8150   11.4047    0.0000 C   0  0
   23.6965   10.4040    0.0000 C   0  0  2  0  0  0
   24.0041    8.9359    0.0000 C   0  0
   22.2703   10.8714    0.0000 C   0  0  2  0  0  0
   21.9655   12.3410    0.0000 N   0  0
   23.0851   13.3404    0.0000 C   0  0
   24.5095   12.8703    0.0000 O   0  0
   22.7803   14.8100    0.0000 C   0  0  1  0  0  0
   21.3550   15.2776    0.0000 C   0  0
   21.0474   16.7457    0.0000 C   0  0
   22.1650   17.7462    0.0000 C   0  0
   23.5902   17.2786    0.0000 C   0  0
   23.8979   15.8105    0.0000 N   0  0
   25.3231   15.3429    0.0000 C   0  0
   21.1506    9.8720    0.0000 C   0  0
   19.7262   10.3421    0.0000 O   0  0
   21.4554    8.4024    0.0000 N   0  0
   22.8797    7.9292    0.0000 C   0  0
   23.1829    6.4593    0.0000 O   0  0
   24.6071    5.9860    0.0000 C   0  0
   25.7282    6.9826    0.0000 O   0  0
   24.9103    4.5161    0.0000 C   0  0
   26.3345    4.0428    0.0000 C   0  0
   26.6375    2.5737    0.0000 C   0  0
   27.4556    5.0394    0.0000 C   0  0
   20.3358    7.4030    0.0000 C   0  0  2  0  0  0
   20.6406    5.9335    0.0000 C   0  0
   19.5210    4.9340    0.0000 C   0  0  1  0  0  0
   18.0967    5.4073    0.0000 O   0  0
   16.9741    4.4112    0.0000 C   0  0
   17.2757    2.9419    0.0000 C   0  0
   15.5506    4.8843    0.0000 O   0  0
   19.8258    3.4645    0.0000 C   0  0
   18.8144    2.3740    0.0000 N   0  0
   19.5606    1.0728    0.0000 C   0  0
   18.9502   -0.2954    0.0000 C   0  0
   17.4582   -0.4505    0.0000 O   0  0
   19.8306   -1.5109    0.0000 N   0  0
   19.2190   -2.8814    0.0000 C   0  0  1  0  0  0
   17.7266   -3.0397    0.0000 C   0  0
   17.1166   -4.4110    0.0000 C   0  0
   15.6251   -4.5714    0.0000 C   0  0
   15.0182   -5.9431    0.0000 C   0  0
   15.9027   -7.1546    0.0000 C   0  0
   15.2958   -8.5263    0.0000 C   0  0
   17.3942   -6.9943    0.0000 C   0  0
   18.0011   -5.6225    0.0000 C   0  0
   20.0995   -4.0969    0.0000 C   0  0
   21.5924   -3.9431    0.0000 C   0  0  2  0  0  0
   22.2049   -2.5739    0.0000 C   0  0
   22.4728   -5.1586    0.0000 C   0  0
   21.8603   -6.5278    0.0000 O   0  0
   23.9657   -5.0048    0.0000 N   0  0
   24.8461   -6.2202    0.0000 N   0  0
   26.3391   -6.0664    0.0000 C   0  0
   26.9516   -4.6972    0.0000 O   0  0
   27.2195   -7.2819    0.0000 O   0  0
   28.7124   -7.1281    0.0000 C   0  0
   29.5928   -8.3436    0.0000 C   0  0
   31.0858   -8.1898    0.0000 S   0  0
   31.9662   -9.4052    0.0000 S   0  0
   33.4591   -9.2514    0.0000 C   0  0
   34.3395  -10.4669    0.0000 C   0  0  2  0  0  0
   35.8324  -10.3131    0.0000 N   0  0
   36.7129  -11.5286    0.0000 C   0  0
   36.1004  -12.8978    0.0000 O   0  0
   38.2058  -11.3748    0.0000 C   0  0  2  0  0  0
   38.8215  -10.0060    0.0000 C   0  0
   37.9447   -8.7879    0.0000 C   0  0
   38.5600   -7.4199    0.0000 O   0  0
   36.4523   -8.9386    0.0000 O   0  0
   39.0862  -12.5902    0.0000 N   0  0
   40.5791  -12.4364    0.0000 C   0  0
   41.1916  -11.0672    0.0000 O   0  0
   41.4596  -13.6519    0.0000 C   0  0  1  0  0  0
   40.8470  -15.0212    0.0000 N   0  0
   42.9525  -13.4981    0.0000 C   0  0
   43.8329  -14.7136    0.0000 N   0  0
   45.3258  -14.5598    0.0000 C   0  0
   45.9383  -13.1905    0.0000 O   0  0
   46.2062  -15.7752    0.0000 C   0  0  2  0  0  0
   45.5962  -17.1465    0.0000 C   0  0
   44.1038  -17.3048    0.0000 C   0  0
   43.4921  -18.6744    0.0000 C   0  0
   42.0001  -18.8296    0.0000 C   0  0
   41.1198  -17.6151    0.0000 C   0  0
   41.7314  -16.2454    0.0000 C   0  0
   43.2233  -16.0903    0.0000 C   0  0
   47.6992  -15.6214    0.0000 N   0  0
   48.5796  -16.8369    0.0000 C   0  0
   47.9671  -18.2062    0.0000 O   0  0
   50.0725  -16.6831    0.0000 C   0  0  2  0  0  0
   50.9529  -17.8986    0.0000 C   0  0
   52.4458  -17.7448    0.0000 C   0  0
   53.3276  -18.9583    0.0000 C   0  0
   54.8194  -18.8016    0.0000 C   0  0
   55.4295  -17.4313    0.0000 C   0  0
   54.5479  -16.2177    0.0000 C   0  0
   53.0561  -16.3745    0.0000 C   0  0
   50.6825  -15.3118    0.0000 N   0  0
   49.8008  -14.0974    0.0000 C   0  0
   48.3090  -14.2541    0.0000 O   0  0
   50.4108  -12.7261    0.0000 C   0  0
   49.5290  -11.5116    0.0000 C   0  0
   50.1390  -10.1404    0.0000 C   0  0
   49.2573   -8.9259    0.0000 C   0  0
   49.8673   -7.5546    0.0000 C   0  0
   48.9855   -6.3401    0.0000 C   0  0
   49.5956   -4.9689    0.0000 N   0  0
   48.7138   -3.7544    0.0000 C   0  0
   47.2220   -3.9112    0.0000 O   0  0
   49.3238   -2.3831    0.0000 C   0  0
   48.4421   -1.1687    0.0000 C   0  0
   49.0521    0.2026    0.0000 C   0  0  2  0  0  0
   48.1703    1.4171    0.0000 N   0  0
   48.7803    2.7883    0.0000 C   0  0
   50.2721    2.9451    0.0000 O   0  0
   47.8986    4.0028    0.0000 N   0  0
   48.5086    5.3741    0.0000 C   0  0  2  0  0  0
   47.6268    6.5886    0.0000 C   0  0
   48.2368    7.9598    0.0000 C   0  0
   47.3551    9.1743    0.0000 C   0  0
   47.9648   10.5448    0.0000 O   0  0
   45.8633    9.0175    0.0000 O   0  0
   50.0009    5.5340    0.0000 C   0  0
   50.6090    6.9052    0.0000 O   0  0
   50.8847    4.3220    0.0000 O   0  0
   50.5444    0.3625    0.0000 C   0  0
   51.1525    1.7337    0.0000 O   0  0
   51.4281   -0.8495    0.0000 O   0  0
   33.7295  -11.8382    0.0000 C   0  0
   34.6108  -13.0520    0.0000 O   0  0
   32.2377  -11.9949    0.0000 O   0  0
   21.0288    1.3805    0.0000 C   0  0
   21.1898    2.8718    0.0000 S   0  0
   18.9096    7.8704    0.0000 C   0  0
   17.7917    6.8703    0.0000 C   0  0
   18.6020    9.3385    0.0000 C   0  0
  1  2  1  0
  2  3  1  0
  3  4  1  6
  3  5  1  0
  5  6  1  1
  6  7  1  0
  7  8  2  0
  9  7  1  1
  9 10  1  0
 10 11  1  0
 11 12  1  0
 12 13  1  0
 13 14  1  0
 14  9  1  0
 14 15  1  0
  5 16  1  0
 16 17  2  0
 16 18  1  0
 18 19  1  0
 19 20  1  0
 20 21  1  0
 21 22  2  0
 21 23  1  0
 23 24  1  0
 24 25  1  0
 24 26  1  0
 18 27  1  0
 27 28  1  6
 29 28  1  6
 29 30  1  0
 30 31  1  0
 31 32  1  0
 31 33  2  0
 29 34  1  0
 34 35  2  0
 35 36  1  0
 36 37  1  0
 37 38  2  0
 37 39  1  0
 40 39  1  6
 40 41  1  0
 41 42  1  0
 42 43  2  0
 43 44  1  0
 44 45  2  0
 45 46  1  0
 45 47  1  0
 47 48  2  0
 48 42  1  0
 40 49  1  0
 49 50  1  0
 50 51  1  6
 50 52  1  0
 52 53  2  0
 52 54  1  0
 54 55  1  0
 55 56  1  0
 56 57  2  0
 56 58  1  0
 58 59  1  0
 59 60  1  0
 60 61  1  0
 61 62  1  0
 62 63  1  0
 64 63  1  6
 64 65  1  0
 65 66  1  0
 66 67  2  0
 66 68  1  0
 68 69  1  6
 69 70  1  0
 70 71  2  0
 70 72  1  0
 68 73  1  0
 73 74  1  0
 74 75  2  0
 74 76  1  0
 76 77  1  6
 76 78  1  0
 78 79  1  0
 79 80  1  0
 80 81  2  0
 80 82  1  0
 82 83  1  1
 83 84  1  0
 84 85  2  0
 85 86  1  0
 86 87  2  0
 87 88  1  0
 88 89  2  0
 89 84  1  0
 82 90  1  0
 90 91  1  0
 91 92  2  0
 91 93  1  0
 93 94  1  1
 94 95  1  0
 95 96  2  0
 96 97  1  0
 97 98  2  0
 98 99  1  0
 99100  2  0
100 95  1  0
 93101  1  0
101102  1  0
102103  2  0
102104  1  0
104105  1  0
105106  1  0
106107  1  0
107108  1  0
108109  1  0
109110  1  0
110111  1  0
111112  2  0
111113  1  0
113114  1  0
115114  1  6
115116  1  0
116117  1  0
117118  2  0
117119  1  0
120119  1  6
120121  1  0
121122  1  0
122123  1  0
123124  2  0
123125  1  0
120126  1  0
126127  2  0
126128  1  0
115129  1  0
129130  2  0
129131  1  0
 64132  1  0
132133  2  0
132134  1  0
 36135  2  0
135136  1  0
136 34  1  0
 27137  1  0
137138  1  0
137139  1  0
M  END
> <assay_chembl_id>
CHEMBL1293013

> <assay_description>
Cytotoxicity against human LNCAP cells after 2 hrs by [3H]thymidine incorporation assay

> <document_journal>
J Med Chem

> <molecule_chembl_id>
CHEMBL1288706

> <standard_value>
6

> <IC50_uM>
0.006

> <Activity>
Yes

> <Canonical_Smiles>
CC[C@H](C)[C@H](NC(=O)[C@H]1CCCCN1C)C(=O)N(COC(=O)CC(C)C)[C@H](C[C@@H](OC(C)=O)c1nc(C(=O)N[C@@H](Cc2ccc(C)cc2)C[C@H](C)C(=O)NNC(=O)OCCSSC[C@H](NC(=O)[C@H](CC(=O)O)NC(=O)[C@@H](N)CNC(=O)[C@H](Cc2ccccc2
)NC(=O)[C@H](Cc2ccccc2)NC(=O)CCCCCCNC(=O)CC[C@H](NC(=O)N[C@H](CCC(=O)O)C(=O)O)C(=O)O)C(=O)O)cs1)C(C)C

$$$$

  SciTegic03142313312D

135145  0  0  1  0            999 V2000
    1.0770    6.3543    0.0000 C   0  0
    1.0683    4.8544    0.0000 C   0  0
   -0.2000    4.0900    0.0000 C   0  0  2  0  0  0
   -0.2441    2.5906    0.0000 O   0  0
   -0.2000    5.2900    0.0000 C   0  0
   -1.2300    5.8900    0.0000 C   0  0
   -2.2500    5.2900    0.0000 N   0  0  3  0  0  0
   -3.9200    5.5000    0.0000 C   0  0
   -5.4100    4.7800    0.0000 C   0  0
   -5.7000    3.1300    0.0000 C   0  0
   -4.9700    1.7900    0.0000 C   0  0
   -6.0100    0.6800    0.0000 N   0  0
   -7.4000    1.3200    0.0000 C   0  0
   -8.8100    0.7400    0.0000 C   0  0
  -10.0200    1.6700    0.0000 C   0  0
   -9.8300    3.1800    0.0000 C   0  0
   -8.4200    3.7700    0.0000 C   0  0
   -7.2000    2.8400    0.0000 C   0  0
   -3.3800    1.2800    0.0000 C   0  0  2  0  0  0
   -4.3011    0.1350    0.0000 C   0  0
   -5.7734    0.4218    0.0000 O   0  0
   -3.8135   -1.2844    0.0000 O   0  0
   -4.7977   -2.4164    0.0000 C   0  0
   -2.3301    0.2513    0.0000 C   0  0
   -2.7110   -1.1720    0.0000 C   0  0
   -1.6165   -2.2180    0.0000 C   0  0
   -0.2693   -1.8150    0.0000 C   0  0
    0.1414   -0.3694    0.0000 C   0  0
   -0.9061    0.6597    0.0000 C   0  0
   -0.5303    2.1129    0.0000 O   0  0
    0.9149    2.5147    0.0000 C   0  0
    0.6269   -3.0200    0.0000 N   0  0
    2.1267   -3.0420    0.0000 C   0  0
   -0.2779   -4.1651    0.0000 C   0  0  2  0  0  0
   -0.0140   -5.6041    0.0000 C   0  0  2  0  0  0
    1.0936   -4.5926    0.0000 O   0  0
    0.7146   -6.8921    0.0000 C   0  0
    2.2144   -6.8669    0.0000 O   0  0
   -0.0135   -8.2045    0.0000 N   0  0
    0.7582   -9.4917    0.0000 N   0  0
    0.0302  -10.8041    0.0000 C   0  0
   -1.4696  -10.8293    0.0000 O   0  0
    0.8019  -12.0913    0.0000 O   0  0
    0.0738  -13.4037    0.0000 C   0  0
    0.8455  -14.6910    0.0000 C   0  0
    0.1174  -16.0033    0.0000 S   0  0
    0.8891  -17.2906    0.0000 S   0  0
    0.1610  -18.6030    0.0000 C   0  0
    0.9327  -19.8902    0.0000 C   0  0  2  0  0  0
    0.2046  -21.2026    0.0000 N   0  0
    0.9763  -22.4898    0.0000 C   0  0
    2.4761  -22.4646    0.0000 O   0  0
    0.2483  -23.8022    0.0000 C   0  0  2  0  0  0
   -1.2523  -23.8305    0.0000 C   0  0
   -2.0279  -22.5456    0.0000 C   0  0
   -3.5276  -22.5738    0.0000 O   0  0
   -1.3029  -21.2324    0.0000 O   0  0
    1.0200  -25.0894    0.0000 N   0  0
    0.2919  -26.4018    0.0000 C   0  0
   -1.2079  -26.4270    0.0000 O   0  0
    1.0636  -27.6890    0.0000 C   0  0  1  0  0  0
    2.5634  -27.6639    0.0000 N   0  0
    0.3355  -29.0014    0.0000 C   0  0
    1.1072  -30.2886    0.0000 N   0  0
    0.3791  -31.6010    0.0000 C   0  0
   -1.1207  -31.6262    0.0000 O   0  0
    1.1508  -32.8883    0.0000 C   0  0  2  0  0  0
    2.6515  -32.8662    0.0000 C   0  0
    3.3835  -31.5560    0.0000 C   0  0
    4.8834  -31.5317    0.0000 C   0  0
    5.6123  -30.2207    0.0000 C   0  0
    4.8415  -28.9340    0.0000 C   0  0
    3.3417  -28.9581    0.0000 C   0  0
    2.6127  -30.2691    0.0000 C   0  0
    0.4227  -34.2006    0.0000 N   0  0
    1.1944  -35.4879    0.0000 C   0  0
    2.6942  -35.4627    0.0000 O   0  0
    0.4664  -36.8003    0.0000 C   0  0  2  0  0  0
    1.2381  -38.0875    0.0000 C   0  0
    0.5100  -39.3999    0.0000 C   0  0
    1.2794  -40.6875    0.0000 C   0  0
    0.5490  -41.9977    0.0000 C   0  0
   -0.9508  -42.0203    0.0000 C   0  0
   -1.7203  -40.7327    0.0000 C   0  0
   -0.9899  -39.4225    0.0000 C   0  0
   -1.0343  -36.8224    0.0000 N   0  0
   -1.8046  -35.5343    0.0000 C   0  0
   -1.0742  -34.2241    0.0000 O   0  0
   -3.3053  -35.5564    0.0000 C   0  0
   -4.0755  -34.2683    0.0000 C   0  0
   -5.5762  -34.2904    0.0000 C   0  0
   -6.3465  -33.0023    0.0000 C   0  0
   -7.8471  -33.0244    0.0000 C   0  0
   -8.6174  -31.7363    0.0000 C   0  0
  -10.1181  -31.7584    0.0000 N   0  0
  -10.8884  -30.4703    0.0000 C   0  0
  -10.1580  -29.1602    0.0000 O   0  0
  -12.3890  -30.4924    0.0000 C   0  0
  -13.1593  -29.2043    0.0000 C   0  0
  -14.6600  -29.2264    0.0000 C   0  0  2  0  0  0
  -15.4302  -27.9384    0.0000 N   0  0
  -16.9309  -27.9604    0.0000 C   0  0
  -17.6613  -29.2706    0.0000 O   0  0
  -17.7012  -26.6724    0.0000 N   0  0
  -19.2018  -26.6945    0.0000 C   0  0  2  0  0  0
  -19.9721  -25.4064    0.0000 C   0  0
  -21.4728  -25.4285    0.0000 C   0  0
  -22.2431  -24.1404    0.0000 C   0  0
  -23.7429  -24.1625    0.0000 O   0  0
  -21.5127  -22.8302    0.0000 O   0  0
  -19.9353  -28.0038    0.0000 C   0  0
  -21.4352  -28.0243    0.0000 O   0  0
  -19.1681  -29.2928    0.0000 O   0  0
  -15.3934  -30.5358    0.0000 C   0  0
  -16.8933  -30.5562    0.0000 O   0  0
  -14.6262  -31.8248    0.0000 O   0  0
    2.4334  -19.8681    0.0000 C   0  0
    3.2033  -21.1555    0.0000 O   0  0
    3.1638  -18.5579    0.0000 O   0  0
   -1.1529   -6.6124    0.0000 C   0  0  1  0  0  0
   -0.8688   -8.0852    0.0000 O   0  0
   -2.5335   -6.1188    0.0000 C   0  0  1  0  0  0
   -2.2630   -7.5946    0.0000 C   0  0
   -3.4048   -8.5674    0.0000 C   0  0
   -3.6287   -7.0542    0.0000 C   0  0
   -5.0406   -6.5494    0.0000 C   0  0
   -5.3459   -4.5824    0.0000 C   0  0
   -4.0445   -3.8623    0.0000 N   0  0  3  0  0  0
   -3.7291   -2.4358    0.0000 C   0  0
   -2.2452   -2.2939    0.0000 C   0  0
   -1.6741   -3.6659    0.0000 C   0  0  1  0  0  0
   -2.8019   -4.6427    0.0000 C   0  0  2  0  0  0
   -1.8700    1.9700    0.0000 C   0  0
   -1.2300    3.5100    0.0000 C   0  0  3  0  0  0
   -2.2500    4.0900    0.0000 C   0  0
  1  2  1  0
  2  3  1  0
  3  4  1  6
  3  5  1  0
  5  6  1  0
  7  6  1  4
  7  8  1  0
  8  9  1  0
  9 10  1  0
 10 11  2  0
 11 12  1  0
 12 13  1  0
 13 14  2  0
 14 15  1  0
 15 16  2  0
 16 17  1  0
 17 18  2  0
 18 10  1  0
 18 13  1  0
 11 19  1  0
 19 20  1  6
 20 21  2  0
 20 22  1  0
 22 23  1  0
 19 24  1  0
 24 25  2  0
 25 26  1  0
 26 27  2  0
 27 28  1  0
 28 29  2  0
 29 24  1  0
 29 30  1  0
 30 31  1  0
 27 32  1  0
 32 33  1  0
 34 32  1  6
 34 35  1  0
 35 36  1  1
 35 37  1  0
 37 38  2  0
 37 39  1  0
 39 40  1  0
 40 41  1  0
 41 42  2  0
 41 43  1  0
 43 44  1  0
 44 45  1  0
 45 46  1  0
 46 47  1  0
 47 48  1  0
 49 48  1  1
 49 50  1  0
 50 51  1  0
 51 52  2  0
 51 53  1  0
 53 54  1  1
 54 55  1  0
 55 56  2  0
 55 57  1  0
 53 58  1  0
 58 59  1  0
 59 60  2  0
 59 61  1  0
 61 62  1  1
 61 63  1  0
 63 64  1  0
 64 65  1  0
 65 66  2  0
 65 67  1  0
 67 68  1  6
 68 69  1  0
 69 70  2  0
 70 71  1  0
 71 72  2  0
 72 73  1  0
 73 74  2  0
 74 69  1  0
 67 75  1  0
 75 76  1  0
 76 77  2  0
 76 78  1  0
 78 79  1  6
 79 80  1  0
 80 81  2  0
 81 82  1  0
 82 83  2  0
 83 84  1  0
 84 85  2  0
 85 80  1  0
 78 86  1  0
 86 87  1  0
 87 88  2  0
 87 89  1  0
 89 90  1  0
 90 91  1  0
 91 92  1  0
 92 93  1  0
 93 94  1  0
 94 95  1  0
 95 96  1  0
 96 97  2  0
 96 98  1  0
 98 99  1  0
100 99  1  1
100101  1  0
101102  1  0
102103  2  0
102104  1  0
105104  1  1
105106  1  0
106107  1  0
107108  1  0
108109  2  0
108110  1  0
105111  1  0
111112  2  0
111113  1  0
100114  1  0
114115  2  0
114116  1  0
 49117  1  0
117118  2  0
117119  1  0
 35120  1  0
120121  1  1
120122  1  0
122123  1  6
123124  1  0
122125  1  0
125126  2  0
126127  1  0
128127  1  4
128129  1  0
129130  1  0
131130  1  1
131 26  1  0
131 34  1  0
131132  1  0
132128  1  6
132122  1  0
 19133  1  0
134133  1  4
134  3  1  0
134135  1  0
135  7  1  0
M  END
> <assay_chembl_id>
CHEMBL1293013

> <assay_description>
Cytotoxicity against human LNCAP cells after 2 hrs by [3H]thymidine incorporation assay

> <document_journal>
J Med Chem

> <molecule_chembl_id>
CHEMBL1288711

> <standard_value>
31

> <IC50_uM>
0.031

> <Activity>
Yes

> <Canonical_Smiles>
CC[C@]1(O)CCN2CCc3c([nH]c4ccccc34)[C@](C(=O)OC)(c3cc4c(cc3OC)N(C)[C@@H]3[C@](O)(C(=O)NNC(=O)OCCSSC[C@H](NC(=O)[C@H](CC(=O)O)NC(=O)[C@@H](N)CNC(=O)[C@H](Cc5ccccc5)NC(=O)[C@H](Cc5ccccc5)NC(=O)CCCCCCNC(=
O)CC[C@H](NC(=O)N[C@H](CCC(=O)O)C(=O)O)C(=O)O)C(=O)O)[C@@H](O)[C@@]5(CC)C=CCN6CC[C@@]43[C@@H]65)CC1C2

$$$$

  SciTegic03142313312D

105111  0  0  1  0            999 V2000
   21.1189    0.6262    0.0000 C   0  0
   20.9034   -0.8582    0.0000 C   0  0
   22.0877   -1.7472    0.0000 C   0  0  1  0  0  0
   21.9823   -3.2239    0.0000 O   0  0
   20.6493   -3.9135    0.0000 C   0  0
   19.3865   -3.1039    0.0000 O   0  0
   20.5790   -5.4127    0.0000 O   0  0
   19.2460   -6.1023    0.0000 C   0  0
   19.1757   -7.6015    0.0000 C   0  0
   17.8427   -8.2911    0.0000 S   0  0
   17.7725   -9.7902    0.0000 S   0  0
   16.4394  -10.4798    0.0000 C   0  0
   16.3692  -11.9790    0.0000 C   0  0  2  0  0  0
   15.0362  -12.6686    0.0000 N   0  0
   14.9659  -14.1678    0.0000 C   0  0
   16.2287  -14.9774    0.0000 O   0  0
   13.6329  -14.8574    0.0000 C   0  0  2  0  0  0
   12.3678  -14.0499    0.0000 C   0  0
   11.0355  -14.7410    0.0000 C   0  0
    9.7711  -13.9340    0.0000 O   0  0
   10.9908  -15.7400    0.0000 O   0  0
   13.5627  -16.3566    0.0000 N   0  0
   12.2296  -17.0461    0.0000 C   0  0
   11.3878  -16.5064    0.0000 O   0  0
   12.1594  -18.5453    0.0000 C   0  0  1  0  0  0
   13.4222  -19.3549    0.0000 N   0  0
   10.8264  -19.2349    0.0000 C   0  0
   10.7561  -20.7341    0.0000 N   0  0
    9.4231  -21.4237    0.0000 C   0  0
    8.1603  -20.6141    0.0000 O   0  0
    9.3529  -22.9229    0.0000 C   0  0  2  0  0  0
   10.6146  -23.7355    0.0000 C   0  0
   10.5427  -25.2346    0.0000 C   0  0
    9.2107  -25.9243    0.0000 C   0  0
    9.1418  -27.4227    0.0000 C   0  0
   10.4051  -28.2315    0.0000 C   0  0
   11.7372  -27.5419    0.0000 C   0  0
   11.8060  -26.0435    0.0000 C   0  0
    8.0198  -23.6125    0.0000 N   0  0
    7.9496  -25.1116    0.0000 C   0  0
    8.7914  -25.6514    0.0000 O   0  0
    6.6166  -25.8012    0.0000 C   0  0  2  0  0  0
    6.5463  -27.3004    0.0000 C   0  0
    5.2133  -27.9900    0.0000 C   0  0
    5.1409  -29.4883    0.0000 C   0  0
    3.8072  -30.1748    0.0000 C   0  0
    2.5458  -29.3630    0.0000 C   0  0
    2.6181  -27.8648    0.0000 C   0  0
    3.9518  -27.1783    0.0000 C   0  0
    5.3548  -24.9886    0.0000 N   0  0
    5.4267  -23.4895    0.0000 C   0  0
    6.7604  -22.8030    0.0000 O   0  0
    4.1649  -22.6769    0.0000 C   0  0
    4.2368  -21.1778    0.0000 C   0  0
    2.9750  -20.3652    0.0000 C   0  0
    3.0469  -18.8661    0.0000 C   0  0
    1.7851  -18.0534    0.0000 C   0  0
    1.8570  -16.5543    0.0000 C   0  0
    0.5953  -15.7417    0.0000 N   0  0
    0.6672  -14.2426    0.0000 C   0  0
    2.0009  -13.5561    0.0000 O   0  0
   -0.5946  -13.4300    0.0000 C   0  0
   -0.5227  -11.9309    0.0000 C   0  0
   -1.7845  -11.1182    0.0000 C   0  0  2  0  0  0
   -1.7126   -9.6191    0.0000 N   0  0
   -2.9744   -8.8065    0.0000 C   0  0
   -4.3081   -9.4930    0.0000 O   0  0
   -2.9025   -7.3074    0.0000 N   0  0
   -4.1642   -6.4948    0.0000 C   0  0  2  0  0  0
   -4.0923   -4.9957    0.0000 C   0  0
   -5.3541   -4.1831    0.0000 C   0  0
   -5.2822   -2.6839    0.0000 C   0  0
   -6.5433   -1.8718    0.0000 O   0  0
   -3.9485   -1.9975    0.0000 O   0  0
   -5.5001   -7.1789    0.0000 C   0  0
   -6.7603   -6.3653    0.0000 O   0  0
   -5.5750   -8.6770    0.0000 O   0  0
   -3.1203  -11.8023    0.0000 C   0  0
   -4.3805  -10.9888    0.0000 O   0  0
   -3.1953  -13.3005    0.0000 O   0  0
   17.6310  -12.7916    0.0000 C   0  0
   17.5591  -14.2899    0.0000 O   0  0
   18.9647  -12.1052    0.0000 O   0  0
   22.2312   -0.2541    0.0000 C   0  0
   23.5961    0.3681    0.0000 C   0  0
   23.7397    1.8612    0.0000 C   0  0
   25.1046    2.4834    0.0000 C   0  0
   26.3258    1.6125    0.0000 N   0  0
   26.1823    0.1194    0.0000 C   0  0
   27.4035   -0.7515    0.0000 O   0  0
   24.8174   -0.5028    0.0000 C   0  0
   24.6738   -1.9959    0.0000 O   0  0
   23.3089   -2.6181    0.0000 C   0  0
   23.2132   -3.6135    0.0000 O   0  0
   27.5310    2.5042    0.0000 C   0  0
   27.0549    3.9266    0.0000 C   0  0
   27.7934    5.2310    0.0000 C   0  0
   27.0319    6.5233    0.0000 C   0  0
   27.7704    7.8290    0.0000 C   0  0
   27.0089    9.1213    0.0000 C   0  0
   25.5090    9.1080    0.0000 C   0  0
   24.7705    7.8024    0.0000 C   0  0
   25.5320    6.5101    0.0000 C   0  0
   24.7935    5.2044    0.0000 N   0  0
   25.5550    3.9134    0.0000 C   0  0
  1  2  1  0
  3  2  1  1
  3  4  1  0
  4  5  1  0
  5  6  2  0
  5  7  1  0
  7  8  1  0
  8  9  1  0
  9 10  1  0
 10 11  1  0
 11 12  1  0
 13 12  1  1
 13 14  1  0
 14 15  1  0
 15 16  2  0
 15 17  1  0
 17 18  1  1
 18 19  1  0
 19 20  2  0
 19 21  1  0
 17 22  1  0
 22 23  1  0
 23 24  2  0
 23 25  1  0
 25 26  1  1
 25 27  1  0
 27 28  1  0
 28 29  1  0
 29 30  2  0
 29 31  1  0
 31 32  1  6
 32 33  1  0
 33 34  2  0
 34 35  1  0
 35 36  2  0
 36 37  1  0
 37 38  2  0
 38 33  1  0
 31 39  1  0
 39 40  1  0
 40 41  2  0
 40 42  1  0
 42 43  1  6
 43 44  1  0
 44 45  2  0
 45 46  1  0
 46 47  2  0
 47 48  1  0
 48 49  2  0
 49 44  1  0
 42 50  1  0
 50 51  1  0
 51 52  2  0
 51 53  1  0
 53 54  1  0
 54 55  1  0
 55 56  1  0
 56 57  1  0
 57 58  1  0
 58 59  1  0
 59 60  1  0
 60 61  2  0
 60 62  1  0
 62 63  1  0
 64 63  1  1
 64 65  1  0
 65 66  1  0
 66 67  2  0
 66 68  1  0
 69 68  1  1
 69 70  1  0
 70 71  1  0
 71 72  1  0
 72 73  2  0
 72 74  1  0
 69 75  1  0
 75 76  2  0
 75 77  1  0
 64 78  1  0
 78 79  2  0
 78 80  1  0
 13 81  1  0
 81 82  2  0
 81 83  1  0
  3 84  1  0
 84 85  1  0
 85 86  1  0
 86 87  2  0
 87 88  1  0
 88 89  1  0
 89 90  2  0
 89 91  1  0
 91 85  2  0
 91 92  1  0
 92 93  1  0
 93  3  1  0
 93 94  2  0
 88 95  1  0
 95 96  1  0
 96 97  2  0
 97 98  1  0
 98 99  2  0
 99100  1  0
100101  2  0
101102  1  0
102103  2  0
103 98  1  0
103104  1  0
104105  2  0
105 96  1  0
105 87  1  0
M  END
> <assay_chembl_id>
CHEMBL1293013

> <assay_description>
Cytotoxicity against human LNCAP cells after 2 hrs by [3H]thymidine incorporation assay

> <document_journal>
J Med Chem

> <molecule_chembl_id>
CHEMBL1288712

> <standard_value>
115

> <IC50_uM>
0.115

> <Activity>
Yes

> <Canonical_Smiles>
CC[C@@]1(OC(=O)OCCSSC[C@H](NC(=O)[C@H](CC(=O)O)NC(=O)[C@@H](N)CNC(=O)[C@H](Cc2ccccc2)NC(=O)[C@H](Cc2ccccc2)NC(=O)CCCCCCNC(=O)CC[C@H](NC(=O)N[C@H](CCC(=O)O)C(=O)O)C(=O)O)C(=O)O)Cc2cc3n(c(=O)c2OC1=O)Cc1
cc2ccccc2nc1-3

$$$$

  SciTegic03142313312D

149153  0  0  1  0            999 V2000
   19.6295   35.0091    0.0000 C   0  0
   20.1760   36.4060    0.0000 C   0  0
   19.2398   37.5790    0.0000 C   0  0  2  0  0  0
   17.7567   37.3543    0.0000 C   0  0
   19.7906   38.9866    0.0000 C   0  0  2  0  0  0
   18.4797   39.7158    0.0000 N   0  0
   17.4142   40.7715    0.0000 C   0  0
   16.2232   39.8597    0.0000 O   0  0
   16.6730   42.0757    0.0000 C   0  0  1  0  0  0
   15.2705   41.5120    0.0000 N   0  0
   15.0581   40.0263    0.0000 C   0  0
   16.2381   39.1003    0.0000 O   0  0
   13.6655   39.4665    0.0000 C   0  0  2  0  0  0
   12.4867   40.3955    0.0000 C   0  0
   12.7008   41.8809    0.0000 C   0  0
   11.5227   42.8094    0.0000 C   0  0
   14.0938   42.4375    0.0000 C   0  0
   13.4530   37.9808    0.0000 N   0  0
   14.6331   37.0548    0.0000 C   0  0
   12.0605   37.4211    0.0000 C   0  0
   10.8804   38.3471    0.0000 O   0  0
   11.8480   35.9354    0.0000 C   0  0  2  0  0  0
   12.9297   34.9147    0.0000 C   0  0
   12.2716   33.5667    0.0000 C   0  0
   10.7863   33.7760    0.0000 C   0  0
   10.5264   35.2534    0.0000 N   0  0
    9.1837   35.9181    0.0000 C   0  0
    7.9339   35.0872    0.0000 C   0  0  3  0  0  0
    8.0291   33.5902    0.0000 C   0  0
    6.5890   35.7532    0.0000 O   0  0
    5.3392   34.9223    0.0000 C   0  0
    5.4343   33.4253    0.0000 O   0  0
    3.9943   35.5883    0.0000 O   0  0
    2.7445   34.7574    0.0000 C   0  0
    1.3995   35.4234    0.0000 C   0  0
    0.1497   34.5924    0.0000 S   0  0
   -1.1952   35.2585    0.0000 S   0  0
   -2.4450   34.4275    0.0000 C   0  0
   -3.7900   35.0935    0.0000 C   0  0  2  0  0  0
   -5.0398   34.2626    0.0000 N   0  0
   -6.3847   34.9286    0.0000 C   0  0
   -6.4799   36.4256    0.0000 O   0  0
   -7.6345   34.0977    0.0000 C   0  0  2  0  0  0
   -7.5424   32.5997    0.0000 C   0  0
   -8.7931   31.7701    0.0000 C   0  0
   -8.7010   30.2729    0.0000 O   0  0
   -9.6883   32.2157    0.0000 O   0  0
   -8.9795   34.7637    0.0000 N   0  0
  -10.2293   33.9327    0.0000 C   0  0
  -10.1658   32.9348    0.0000 O   0  0
  -11.5742   34.5988    0.0000 C   0  0  1  0  0  0
  -11.6694   36.0957    0.0000 N   0  0
  -12.8240   33.7678    0.0000 C   0  0
  -14.1690   34.4338    0.0000 N   0  0
  -15.4188   33.6029    0.0000 C   0  0
  -15.3236   32.1059    0.0000 O   0  0
  -16.7637   34.2689    0.0000 C   0  0  2  0  0  0
  -16.8620   35.7665    0.0000 C   0  0
  -18.2077   36.4311    0.0000 C   0  0
  -19.4571   35.6010    0.0000 C   0  0
  -20.8007   36.2679    0.0000 C   0  0
  -20.8949   37.7649    0.0000 C   0  0
  -19.6456   38.5951    0.0000 C   0  0
  -18.3020   37.9282    0.0000 C   0  0
  -18.0135   33.4380    0.0000 N   0  0
  -19.3584   34.1040    0.0000 C   0  0
  -19.4219   35.1020    0.0000 O   0  0
  -20.6082   33.2730    0.0000 C   0  0  2  0  0  0
  -21.9532   33.9391    0.0000 C   0  0
  -23.2030   33.1081    0.0000 C   0  0
  -24.5482   33.7718    0.0000 C   0  0
  -25.7956   32.9388    0.0000 C   0  0
  -25.6979   31.4420    0.0000 C   0  0
  -24.3527   30.7782    0.0000 C   0  0
  -23.1053   31.6112    0.0000 C   0  0
  -20.5100   31.7754    0.0000 N   0  0
  -19.1643   31.1109    0.0000 C   0  0
  -17.9169   31.9440    0.0000 O   0  0
  -19.0660   29.6133    0.0000 C   0  0
  -17.7203   28.9488    0.0000 C   0  0
  -17.6220   27.4511    0.0000 C   0  0
  -16.2763   26.7866    0.0000 C   0  0
  -16.1781   25.2890    0.0000 C   0  0
  -14.8324   24.6245    0.0000 C   0  0
  -14.7341   23.1269    0.0000 N   0  0
  -13.3884   22.4623    0.0000 C   0  0
  -12.1410   23.2954    0.0000 O   0  0
  -13.2901   20.9647    0.0000 C   0  0
  -11.9444   20.3002    0.0000 C   0  0
  -11.8462   18.8026    0.0000 C   0  0  2  0  0  0
  -10.5005   18.1380    0.0000 N   0  0
  -10.4022   16.6404    0.0000 C   0  0
  -11.6496   15.8074    0.0000 O   0  0
   -9.0565   15.9759    0.0000 N   0  0
   -8.9582   14.4783    0.0000 C   0  0  2  0  0  0
   -7.6125   13.8138    0.0000 C   0  0
   -7.5143   12.3162    0.0000 C   0  0
   -6.1686   11.6516    0.0000 C   0  0
   -6.0703   10.1548    0.0000 O   0  0
   -4.9212   12.4847    0.0000 O   0  0
  -10.2046   13.6422    0.0000 C   0  0
  -10.1047   12.1455    0.0000 O   0  0
  -11.5509   14.3036    0.0000 O   0  0
  -13.0925   17.9665    0.0000 C   0  0
  -12.9926   16.4698    0.0000 O   0  0
  -14.4388   18.6279    0.0000 O   0  0
   -3.8883   36.5911    0.0000 C   0  0
   -5.2332   37.2553    0.0000 O   0  0
   -2.6409   37.4242    0.0000 O   0  0
   16.3112   43.5314    0.0000 C   0  0  2  0  0  0
   14.8198   43.3711    0.0000 C   0  0
   16.3556   45.0307    0.0000 O   0  0
   16.8028   46.4625    0.0000 C   0  0
   15.4452   47.1005    0.0000 O   0  0
   17.6197   47.7205    0.0000 C   0  0  2  0  0  0
   16.4740   48.7064    0.0000 C   0  0
   15.0578   48.2119    0.0000 C   0  0
   18.7457   48.7115    0.0000 N   0  0
   17.9173   49.9620    0.0000 C   0  0
   20.0974   49.3619    0.0000 C   0  0
   19.6370   50.7895    0.0000 O   0  0
   21.5744   49.6236    0.0000 C   0  0  2  0  0  0
   21.2532   51.0966    0.0000 C   0  0
   22.5471   51.8555    0.0000 C   0  0
   23.6687   50.8595    0.0000 C   0  0
   23.0672   49.4770    0.0000 N   0  0  3  0  0  0
   24.4651   48.9331    0.0000 C   0  0
   25.6645   48.0323    0.0000 C   0  0  2  0  0  0
   26.7263   49.1081    0.0000 C   0  0
   26.3293   50.5554    0.0000 C   0  0
   27.3830   51.6230    0.0000 C   0  0
   24.8780   50.9346    0.0000 C   0  0
   26.5763   46.8412    0.0000 N   0  0
   27.1330   45.4484    0.0000 C   0  0
   28.5887   45.8102    0.0000 O   0  0
   27.2932   43.9569    0.0000 C   0  0  1  0  0  0
   28.7926   43.9126    0.0000 C   0  0
   27.0451   42.4776    0.0000 C   0  0
   28.4769   42.0304    0.0000 O   0  0
   26.4071   41.1201    0.0000 C   0  0  2  0  0  0
   27.6732   40.2944    0.0000 C   0  0
   27.5928   38.7965    0.0000 C   0  0
   29.0108   40.9732    0.0000 C   0  0
   25.4265   39.9850    0.0000 O   0  0
   24.1760   39.1565    0.0000 C   0  0
   24.8265   37.8049    0.0000 O   0  0
   22.7484   38.6962    0.0000 C   0  0
   21.2495   38.6381    0.0000 C   0  0  2  0  0  0
   21.1030   37.1453    0.0000 O   0  0
  1  2  1  0
  2  3  1  0
  3  4  1  6
  3  5  1  0
  5  6  1  6
  6  7  1  0
  7  8  2  0
  7  9  1  0
  9 10  1  1
 10 11  1  0
 11 12  2  0
 11 13  1  0
 13 14  1  1
 14 15  1  0
 15 16  1  0
 15 17  1  0
 13 18  1  0
 18 19  1  0
 18 20  1  0
 20 21  2  0
 22 20  1  6
 22 23  1  0
 23 24  1  0
 24 25  1  0
 25 26  1  0
 26 22  1  0
 26 27  1  0
 27 28  1  0
 28 29  1  4
 28 30  1  0
 30 31  1  0
 31 32  2  0
 31 33  1  0
 33 34  1  0
 34 35  1  0
 35 36  1  0
 36 37  1  0
 37 38  1  0
 39 38  1  6
 39 40  1  0
 40 41  1  0
 41 42  2  0
 41 43  1  0
 43 44  1  6
 44 45  1  0
 45 46  2  0
 45 47  1  0
 43 48  1  0
 48 49  1  0
 49 50  2  0
 49 51  1  0
 51 52  1  6
 51 53  1  0
 53 54  1  0
 54 55  1  0
 55 56  2  0
 55 57  1  0
 57 58  1  1
 58 59  1  0
 59 60  2  0
 60 61  1  0
 61 62  2  0
 62 63  1  0
 63 64  2  0
 64 59  1  0
 57 65  1  0
 65 66  1  0
 66 67  2  0
 66 68  1  0
 68 69  1  1
 69 70  1  0
 70 71  2  0
 71 72  1  0
 72 73  2  0
 73 74  1  0
 74 75  2  0
 75 70  1  0
 68 76  1  0
 76 77  1  0
 77 78  2  0
 77 79  1  0
 79 80  1  0
 80 81  1  0
 81 82  1  0
 82 83  1  0
 83 84  1  0
 84 85  1  0
 85 86  1  0
 86 87  2  0
 86 88  1  0
 88 89  1  0
 90 89  1  6
 90 91  1  0
 91 92  1  0
 92 93  2  0
 92 94  1  0
 95 94  1  6
 95 96  1  0
 96 97  1  0
 97 98  1  0
 98 99  2  0
 98100  1  0
 95101  1  0
101102  2  0
101103  1  0
 90104  1  0
104105  2  0
104106  1  0
 39107  1  0
107108  2  0
107109  1  0
  9110  1  0
110111  1  6
110112  1  0
112113  1  0
113114  2  0
113115  1  0
115116  1  6
116117  1  0
115118  1  0
118119  1  0
118120  1  0
120121  2  0
120122  1  0
122123  1  6
123124  1  0
124125  1  0
126125  1  4
126122  1  0
126127  1  0
127128  1  0
128129  1  6
129130  1  0
130131  1  0
130132  1  0
128133  1  0
133134  1  0
134135  2  0
134136  1  0
136137  1  1
136138  1  0
138139  2  0
138140  1  0
140141  1  6
141142  1  0
141143  1  0
140144  1  0
144145  1  0
145146  2  0
145147  1  0
147148  1  0
148  5  1  0
148149  1  6
M  END
> <assay_chembl_id>
CHEMBL1293013

> <assay_description>
Cytotoxicity against human LNCAP cells after 2 hrs by [3H]thymidine incorporation assay

> <document_journal>
J Med Chem

> <molecule_chembl_id>
CHEMBL1288713

> <standard_value>
107

> <IC50_uM>
0.107

> <Activity>
Yes

> <Canonical_Smiles>
CC[C@H](C)[C@@H]1NC(=O)[C@@H](NC(=O)[C@H](CC(C)C)N(C)C(=O)[C@@H]2CCCN2CC(C)OC(=O)OCCSSC[C@H](NC(=O)[C@H](CC(=O)O)NC(=O)[C@@H](N)CNC(=O)[C@H](Cc2ccccc2)NC(=O)[C@H](Cc2ccccc2)NC(=O)CCCCCCNC(=O)CC[C@H](N
C(=O)N[C@H](CCC(=O)O)C(=O)O)C(=O)O)C(=O)O)[C@H](C)OC(=O)[C@H](CC)N(C)C(=O)[C@@H]2CCCN2C[C@H](CC(C)C)NC(=O)[C@@H](C)C(=O)[C@H](C(C)C)OC(=O)C[C@@H]1O

$$$$

  SciTegic03142313312D

126130  0  0  1  0            999 V2000
   26.2404   10.9375    0.0000 C   0  0
   24.8150   11.4047    0.0000 C   0  0
   23.6965   10.4040    0.0000 C   0  0  2  0  0  0
   24.0041    8.9359    0.0000 C   0  0
   22.2703   10.8714    0.0000 C   0  0  2  0  0  0
   21.9655   12.3410    0.0000 N   0  0
   23.0851   13.3404    0.0000 C   0  0
   24.5095   12.8703    0.0000 O   0  0
   22.7803   14.8100    0.0000 C   0  0  1  0  0  0
   21.3550   15.2776    0.0000 C   0  0
   21.0474   16.7457    0.0000 C   0  0
   22.1650   17.7462    0.0000 C   0  0
   23.5902   17.2786    0.0000 C   0  0
   23.8979   15.8105    0.0000 N   0  0
   25.3231   15.3429    0.0000 C   0  0
   21.1506    9.8720    0.0000 C   0  0
   19.7262   10.3421    0.0000 O   0  0
   21.4554    8.4024    0.0000 N   0  0
   22.8797    7.9292    0.0000 C   0  0
   23.1829    6.4593    0.0000 O   0  0
   24.6071    5.9860    0.0000 C   0  0
   25.7282    6.9826    0.0000 O   0  0
   24.9103    4.5161    0.0000 C   0  0
   26.3345    4.0428    0.0000 C   0  0
   26.6375    2.5737    0.0000 C   0  0
   27.4556    5.0394    0.0000 C   0  0
   20.3358    7.4030    0.0000 C   0  0  2  0  0  0
   20.6406    5.9335    0.0000 C   0  0
   19.5210    4.9340    0.0000 C   0  0  1  0  0  0
   18.0967    5.4073    0.0000 O   0  0
   16.9741    4.4112    0.0000 C   0  0
   17.2757    2.9419    0.0000 C   0  0
   15.5506    4.8843    0.0000 O   0  0
   19.8258    3.4645    0.0000 C   0  0
   18.8144    2.3740    0.0000 N   0  0
   19.5606    1.0728    0.0000 C   0  0
   18.9502   -0.2954    0.0000 C   0  0
   17.4582   -0.4505    0.0000 O   0  0
   19.8306   -1.5109    0.0000 N   0  0
   19.2190   -2.8814    0.0000 C   0  0  1  0  0  0
   17.7266   -3.0397    0.0000 C   0  0
   17.1166   -4.4110    0.0000 C   0  0
   15.6251   -4.5714    0.0000 C   0  0
   15.0182   -5.9431    0.0000 C   0  0
   15.9027   -7.1546    0.0000 C   0  0
   15.2958   -8.5263    0.0000 C   0  0
   17.3942   -6.9943    0.0000 C   0  0
   18.0011   -5.6225    0.0000 C   0  0
   20.0995   -4.0969    0.0000 C   0  0
   21.5924   -3.9431    0.0000 C   0  0  2  0  0  0
   22.2049   -2.5739    0.0000 C   0  0
   22.4728   -5.1586    0.0000 C   0  0
   21.8603   -6.5278    0.0000 O   0  0
   23.9657   -5.0048    0.0000 N   0  0
   24.8461   -6.2202    0.0000 N   0  0
   26.3391   -6.0664    0.0000 C   0  0
   26.9516   -4.6972    0.0000 O   0  0
   27.2195   -7.2819    0.0000 O   0  0
   28.7124   -7.1281    0.0000 C   0  0
   29.5928   -8.3436    0.0000 C   0  0
   31.0858   -8.1898    0.0000 S   0  0
   31.9662   -9.4052    0.0000 S   0  0
   33.4591   -9.2514    0.0000 C   0  0
   34.3395  -10.4669    0.0000 C   0  0  2  0  0  0
   35.8324  -10.3131    0.0000 N   0  0
   36.7129  -11.5286    0.0000 C   0  0
   36.1004  -12.8978    0.0000 O   0  0
   38.2058  -11.3748    0.0000 C   0  0  2  0  0  0
   38.8215  -10.0060    0.0000 C   0  0
   37.9447   -8.7879    0.0000 C   0  0
   38.5580   -7.4190    0.0000 C   0  0
   37.6793   -6.2034    0.0000 C   0  0
   36.1871   -6.3566    0.0000 C   0  0
   35.5737   -7.7254    0.0000 C   0  0
   36.4525   -8.9411    0.0000 C   0  0
   39.0862  -12.5902    0.0000 N   0  0
   40.5791  -12.4364    0.0000 C   0  0
   41.1916  -11.0672    0.0000 O   0  0
   41.4596  -13.6519    0.0000 C   0  0  2  0  0  0
   42.9525  -13.4981    0.0000 C   0  0
   43.8329  -14.7136    0.0000 C   0  0
   45.3253  -14.5620    0.0000 C   0  0
   46.2027  -15.7786    0.0000 C   0  0
   45.5879  -17.1468    0.0000 C   0  0
   44.0955  -17.2984    0.0000 C   0  0
   43.2181  -16.0819    0.0000 C   0  0
   40.8439  -15.0206    0.0000 N   0  0
   39.3508  -15.1728    0.0000 C   0  0
   38.4734  -13.9562    0.0000 O   0  0
   38.7351  -16.5415    0.0000 C   0  0
   37.2420  -16.6937    0.0000 C   0  0
   36.6264  -18.0624    0.0000 C   0  0
   35.1333  -18.2145    0.0000 C   0  0
   34.5176  -19.5833    0.0000 C   0  0
   33.0245  -19.7354    0.0000 C   0  0
   32.4089  -21.1041    0.0000 C   0  0
   30.9158  -21.2563    0.0000 N   0  0
   30.3001  -22.6250    0.0000 C   0  0
   31.1776  -23.8416    0.0000 O   0  0
   28.8070  -22.7771    0.0000 C   0  0
   28.1914  -24.1459    0.0000 C   0  0
   26.6983  -24.2980    0.0000 C   0  0  2  0  0  0
   26.0826  -25.6668    0.0000 N   0  0
   24.5895  -25.8189    0.0000 C   0  0
   23.7121  -24.6023    0.0000 O   0  0
   23.9739  -27.1876    0.0000 N   0  0
   22.4808  -27.3398    0.0000 C   0  0  2  0  0  0
   21.8651  -28.7085    0.0000 C   0  0
   20.3720  -28.8606    0.0000 C   0  0
   19.7564  -30.2294    0.0000 C   0  0
   18.2641  -30.3814    0.0000 O   0  0
   20.6338  -31.4460    0.0000 O   0  0
   21.6003  -26.1243    0.0000 C   0  0
   20.1082  -26.2780    0.0000 O   0  0
   22.2128  -24.7551    0.0000 O   0  0
   25.8178  -23.0826    0.0000 C   0  0
   24.3257  -23.2363    0.0000 O   0  0
   26.4304  -21.7133    0.0000 O   0  0
   33.7295  -11.8382    0.0000 C   0  0
   34.6108  -13.0520    0.0000 O   0  0
   32.2377  -11.9949    0.0000 O   0  0
   21.0288    1.3805    0.0000 C   0  0
   21.1898    2.8718    0.0000 S   0  0
   18.9096    7.8704    0.0000 C   0  0
   17.7917    6.8703    0.0000 C   0  0
   18.6020    9.3385    0.0000 C   0  0
  1  2  1  0
  2  3  1  0
  3  4  1  6
  3  5  1  0
  5  6  1  1
  6  7  1  0
  7  8  2  0
  9  7  1  1
  9 10  1  0
 10 11  1  0
 11 12  1  0
 12 13  1  0
 13 14  1  0
 14  9  1  0
 14 15  1  0
  5 16  1  0
 16 17  2  0
 16 18  1  0
 18 19  1  0
 19 20  1  0
 20 21  1  0
 21 22  2  0
 21 23  1  0
 23 24  1  0
 24 25  1  0
 24 26  1  0
 18 27  1  0
 27 28  1  6
 29 28  1  6
 29 30  1  0
 30 31  1  0
 31 32  1  0
 31 33  2  0
 29 34  1  0
 34 35  2  0
 35 36  1  0
 36 37  1  0
 37 38  2  0
 37 39  1  0
 40 39  1  6
 40 41  1  0
 41 42  1  0
 42 43  2  0
 43 44  1  0
 44 45  2  0
 45 46  1  0
 45 47  1  0
 47 48  2  0
 48 42  1  0
 40 49  1  0
 49 50  1  0
 50 51  1  6
 50 52  1  0
 52 53  2  0
 52 54  1  0
 54 55  1  0
 55 56  1  0
 56 57  2  0
 56 58  1  0
 58 59  1  0
 59 60  1  0
 60 61  1  0
 61 62  1  0
 62 63  1  0
 64 63  1  6
 64 65  1  0
 65 66  1  0
 66 67  2  0
 66 68  1  0
 68 69  1  6
 69 70  1  0
 70 71  2  0
 71 72  1  0
 72 73  2  0
 73 74  1  0
 74 75  2  0
 75 70  1  0
 68 76  1  0
 76 77  1  0
 77 78  2  0
 77 79  1  0
 79 80  1  6
 80 81  1  0
 81 82  2  0
 82 83  1  0
 83 84  2  0
 84 85  1  0
 85 86  2  0
 86 81  1  0
 79 87  1  0
 87 88  1  0
 88 89  2  0
 88 90  1  0
 90 91  1  0
 91 92  1  0
 92 93  1  0
 93 94  1  0
 94 95  1  0
 95 96  1  0
 96 97  1  0
 97 98  1  0
 98 99  2  0
 98100  1  0
100101  1  0
102101  1  6
102103  1  0
103104  1  0
104105  2  0
104106  1  0
107106  1  6
107108  1  0
108109  1  0
109110  1  0
110111  2  0
110112  1  0
107113  1  0
113114  2  0
113115  1  0
102116  1  0
116117  2  0
116118  1  0
 64119  1  0
119120  2  0
119121  1  0
 36122  2  0
122123  1  0
123 34  1  0
 27124  1  0
124125  1  0
124126  1  0
M  END
> <assay_chembl_id>
CHEMBL1293013

> <assay_description>
Cytotoxicity against human LNCAP cells after 2 hrs by [3H]thymidine incorporation assay

> <document_journal>
J Med Chem

> <molecule_chembl_id>
CHEMBL1288703

> <standard_value>
24

> <IC50_uM>
0.024

> <Activity>
Yes

> <Canonical_Smiles>
CC[C@H](C)[C@H](NC(=O)[C@H]1CCCCN1C)C(=O)N(COC(=O)CC(C)C)[C@H](C[C@@H](OC(C)=O)c1nc(C(=O)N[C@@H](Cc2ccc(C)cc2)C[C@H](C)C(=O)NNC(=O)OCCSSC[C@H](NC(=O)[C@H](Cc2ccccc2)NC(=O)[C@H](Cc2ccccc2)NC(=O)CCCCCCC
NC(=O)CC[C@H](NC(=O)N[C@H](CCC(=O)O)C(=O)O)C(=O)O)C(=O)O)cs1)C(C)C

$$$$

  SciTegic03142313312D

122125  0  0  1  0            999 V2000
   26.2404   10.9375    0.0000 C   0  0
   24.8150   11.4047    0.0000 C   0  0
   23.6965   10.4040    0.0000 C   0  0  2  0  0  0
   24.0041    8.9359    0.0000 C   0  0
   22.2703   10.8714    0.0000 C   0  0  2  0  0  0
   21.9655   12.3410    0.0000 N   0  0
   23.0851   13.3404    0.0000 C   0  0
   24.5095   12.8703    0.0000 O   0  0
   22.7803   14.8100    0.0000 C   0  0  1  0  0  0
   21.3550   15.2776    0.0000 C   0  0
   21.0474   16.7457    0.0000 C   0  0
   22.1650   17.7462    0.0000 C   0  0
   23.5902   17.2786    0.0000 C   0  0
   23.8979   15.8105    0.0000 N   0  0
   25.3231   15.3429    0.0000 C   0  0
   21.1506    9.8720    0.0000 C   0  0
   19.7262   10.3421    0.0000 O   0  0
   21.4554    8.4024    0.0000 N   0  0
   22.8797    7.9292    0.0000 C   0  0
   23.1829    6.4593    0.0000 O   0  0
   24.6071    5.9860    0.0000 C   0  0
   25.7282    6.9826    0.0000 O   0  0
   24.9103    4.5161    0.0000 C   0  0
   26.3345    4.0428    0.0000 C   0  0
   26.6375    2.5737    0.0000 C   0  0
   27.4556    5.0394    0.0000 C   0  0
   20.3358    7.4030    0.0000 C   0  0  2  0  0  0
   20.6406    5.9335    0.0000 C   0  0
   19.5210    4.9340    0.0000 C   0  0  1  0  0  0
   18.0967    5.4073    0.0000 O   0  0
   16.9741    4.4112    0.0000 C   0  0
   17.2757    2.9419    0.0000 C   0  0
   15.5506    4.8843    0.0000 O   0  0
   19.8258    3.4645    0.0000 C   0  0
   18.8144    2.3740    0.0000 N   0  0
   19.5606    1.0728    0.0000 C   0  0
   18.9502   -0.2954    0.0000 C   0  0
   17.4582   -0.4505    0.0000 O   0  0
   19.8306   -1.5109    0.0000 N   0  0
   19.2190   -2.8814    0.0000 C   0  0  1  0  0  0
   17.7266   -3.0397    0.0000 C   0  0
   17.1166   -4.4110    0.0000 C   0  0
   15.6251   -4.5714    0.0000 C   0  0
   15.0182   -5.9431    0.0000 C   0  0
   15.9027   -7.1546    0.0000 C   0  0
   15.2958   -8.5263    0.0000 C   0  0
   17.3942   -6.9943    0.0000 C   0  0
   18.0011   -5.6225    0.0000 C   0  0
   20.0995   -4.0969    0.0000 C   0  0
   21.5924   -3.9431    0.0000 C   0  0  2  0  0  0
   22.2049   -2.5739    0.0000 C   0  0
   22.4728   -5.1586    0.0000 C   0  0
   21.8603   -6.5278    0.0000 O   0  0
   23.9657   -5.0048    0.0000 N   0  0
   24.8461   -6.2202    0.0000 N   0  0
   26.3391   -6.0664    0.0000 C   0  0
   26.9516   -4.6972    0.0000 O   0  0
   27.2195   -7.2819    0.0000 O   0  0
   28.7124   -7.1281    0.0000 C   0  0
   29.5928   -8.3436    0.0000 C   0  0
   31.0858   -8.1898    0.0000 S   0  0
   31.9662   -9.4052    0.0000 S   0  0
   33.4591   -9.2514    0.0000 C   0  0
   34.3395  -10.4669    0.0000 C   0  0  1  0  0  0
   35.8324  -10.3131    0.0000 N   0  0
   36.7129  -11.5286    0.0000 C   0  0
   36.1004  -12.8978    0.0000 O   0  0
   38.2058  -11.3748    0.0000 C   0  0  2  0  0  0
   39.0862  -12.5902    0.0000 C   0  0
   40.5791  -12.4364    0.0000 C   0  0
   41.4609  -13.6500    0.0000 C   0  0
   42.9526  -13.4932    0.0000 C   0  0
   43.5628  -12.1229    0.0000 C   0  0
   42.6812  -10.9094    0.0000 C   0  0
   41.1894  -11.0661    0.0000 C   0  0
   38.8158  -10.0035    0.0000 N   0  0
   37.9341   -8.7890    0.0000 C   0  0
   36.4423   -8.9458    0.0000 O   0  0
   38.5441   -7.4178    0.0000 C   0  0  2  0  0  0
   40.0364   -7.2578    0.0000 C   0  0
   40.9218   -8.4697    0.0000 C   0  0
   42.4132   -8.3098    0.0000 O   0  0
   40.3149   -9.8414    0.0000 O   0  0
   37.6623   -6.2033    0.0000 N   0  0
   38.2723   -4.8320    0.0000 C   0  0
   39.7641   -4.6753    0.0000 O   0  0
   37.3906   -3.6175    0.0000 C   0  0
   38.0006   -2.2463    0.0000 C   0  0
   37.1188   -1.0318    0.0000 C   0  0  2  0  0  0
   37.7288    0.3394    0.0000 N   0  0
   36.8471    1.5539    0.0000 C   0  0
   35.3553    1.3972    0.0000 O   0  0
   37.4571    2.9252    0.0000 C   0  0
   36.5753    4.1397    0.0000 C   0  0
   37.1854    5.5109    0.0000 C   0  0  2  0  0  0
   36.3036    6.7254    0.0000 N   0  0
   36.9136    8.0967    0.0000 C   0  0
   38.4054    8.2534    0.0000 O   0  0
   36.0318    9.3112    0.0000 N   0  0
   36.6419   10.6824    0.0000 C   0  0  1  0  0  0
   35.7601   11.8969    0.0000 C   0  0
   36.3701   13.2681    0.0000 C   0  0
   35.4884   14.4826    0.0000 C   0  0
   36.0980   15.8531    0.0000 O   0  0
   33.9966   14.3259    0.0000 O   0  0
   38.1342   10.8423    0.0000 C   0  0
   38.7423   12.2135    0.0000 O   0  0
   39.0179    9.6303    0.0000 O   0  0
   38.6776    5.6709    0.0000 C   0  0
   39.2858    7.0420    0.0000 O   0  0
   39.5614    4.4589    0.0000 O   0  0
   35.6259   -1.1856    0.0000 C   0  0
   34.7460    0.0292    0.0000 O   0  0
   35.0134   -2.5549    0.0000 O   0  0
   33.7295  -11.8382    0.0000 C   0  0
   34.6108  -13.0520    0.0000 O   0  0
   32.2377  -11.9949    0.0000 O   0  0
   21.0288    1.3805    0.0000 C   0  0
   21.1898    2.8718    0.0000 S   0  0
   18.9096    7.8704    0.0000 C   0  0
   17.7917    6.8703    0.0000 C   0  0
   18.6020    9.3385    0.0000 C   0  0
  1  2  1  0
  2  3  1  0
  3  4  1  6
  3  5  1  0
  5  6  1  1
  6  7  1  0
  7  8  2  0
  9  7  1  1
  9 10  1  0
 10 11  1  0
 11 12  1  0
 12 13  1  0
 13 14  1  0
 14  9  1  0
 14 15  1  0
  5 16  1  0
 16 17  2  0
 16 18  1  0
 18 19  1  0
 19 20  1  0
 20 21  1  0
 21 22  2  0
 21 23  1  0
 23 24  1  0
 24 25  1  0
 24 26  1  0
 18 27  1  0
 27 28  1  6
 29 28  1  6
 29 30  1  0
 30 31  1  0
 31 32  1  0
 31 33  2  0
 29 34  1  0
 34 35  2  0
 35 36  1  0
 36 37  1  0
 37 38  2  0
 37 39  1  0
 40 39  1  6
 40 41  1  0
 41 42  1  0
 42 43  2  0
 43 44  1  0
 44 45  2  0
 45 46  1  0
 45 47  1  0
 47 48  2  0
 48 42  1  0
 40 49  1  0
 49 50  1  0
 50 51  1  6
 50 52  1  0
 52 53  2  0
 52 54  1  0
 54 55  1  0
 55 56  1  0
 56 57  2  0
 56 58  1  0
 58 59  1  0
 59 60  1  0
 60 61  1  0
 61 62  1  0
 62 63  1  0
 64 63  1  1
 64 65  1  0
 65 66  1  0
 66 67  2  0
 66 68  1  0
 68 69  1  1
 69 70  1  0
 70 71  2  0
 71 72  1  0
 72 73  2  0
 73 74  1  0
 74 75  2  0
 75 70  1  0
 68 76  1  0
 76 77  1  0
 77 78  2  0
 77 79  1  0
 79 80  1  1
 80 81  1  0
 81 82  2  0
 81 83  1  0
 79 84  1  0
 84 85  1  0
 85 86  2  0
 85 87  1  0
 87 88  1  0
 89 88  1  1
 89 90  1  0
 90 91  1  0
 91 92  2  0
 91 93  1  0
 93 94  1  0
 95 94  1  6
 95 96  1  0
 96 97  1  0
 97 98  2  0
 97 99  1  0
100 99  1  1
100101  1  0
101102  1  0
102103  1  0
103104  2  0
103105  1  0
100106  1  0
106107  2  0
106108  1  0
 95109  1  0
109110  2  0
109111  1  0
 89112  1  0
112113  2  0
112114  1  0
 64115  1  0
115116  2  0
115117  1  0
 36118  2  0
118119  1  0
119 34  1  0
 27120  1  0
120121  1  0
120122  1  0
M  END
> <assay_chembl_id>
CHEMBL1293013

> <assay_description>
Cytotoxicity against human LNCAP cells after 2 hrs by [3H]thymidine incorporation assay

> <document_journal>
J Med Chem

> <molecule_chembl_id>
CHEMBL1288714

> <standard_value>
5

> <IC50_uM>
0.005

> <Activity>
Yes

> <Canonical_Smiles>
CC[C@H](C)[C@H](NC(=O)[C@H]1CCCCN1C)C(=O)N(COC(=O)CC(C)C)[C@H](C[C@@H](OC(C)=O)c1nc(C(=O)N[C@@H](Cc2ccc(C)cc2)C[C@H](C)C(=O)NNC(=O)OCCSSC[C@@H](NC(=O)[C@H](Cc2ccccc2)NC(=O)[C@H](CC(=O)O)NC(=O)CC[C@H](
NC(=O)CC[C@H](NC(=O)N[C@@H](CCC(=O)O)C(=O)O)C(=O)O)C(=O)O)C(=O)O)cs1)C(C)C

$$$$

  SciTegic03142313312D

 79 82  0  0  1  0            999 V2000
    3.6992    8.5978    0.0000 C   0  0
    2.9223    7.3147    0.0000 C   0  0
    3.6447    5.9991    0.0000 C   0  0  2  0  0  0
    5.1444    5.9674    0.0000 C   0  0
    2.8618    4.7061    0.0000 C   0  0  1  0  0  0
    1.4860    5.3037    0.0000 N   0  0
    0.0000    5.5080    0.0000 C   0  0
    0.0000    7.0080    0.0000 O   0  0
   -1.4861    5.3037    0.0000 C   0  0  1  0  0  0
   -1.8910    6.7600    0.0000 N   0  0
   -0.8405    7.8318    0.0000 C   0  0
    0.6121    7.4577    0.0000 O   0  0
   -1.2426    9.2778    0.0000 C   0  0  1  0  0  0
   -2.6968    9.6491    0.0000 C   0  0
   -3.7461    8.5761    0.0000 C   0  0
   -5.1995    8.9472    0.0000 C   0  0
   -3.3413    7.1318    0.0000 C   0  0
   -0.1921   10.3497    0.0000 N   0  0
    1.2605    9.9756    0.0000 C   0  0
   -0.5942   11.7956    0.0000 C   0  0
   -2.0468   12.1697    0.0000 O   0  0
    0.4563   12.8675    0.0000 C   0  0  2  0  0  0
    1.9244   12.6291    0.0000 C   0  0
    2.5946   13.9710    0.0000 C   0  0
    1.5255   15.0232    0.0000 C   0  0
    0.1945   14.3315    0.0000 N   0  0
   -1.1495   14.9935    0.0000 C   0  0
   -2.3960   14.1590    0.0000 O   0  0
   -1.2494   16.4909    0.0000 C   0  0  3  0  0  0
   -0.0030   17.3254    0.0000 C   0  0
   -2.5951   17.1536    0.0000 O   0  0
   -2.8619    4.7061    0.0000 C   0  0  1  0  0  0
   -3.6413    5.9877    0.0000 C   0  0
   -4.0254    3.7595    0.0000 O   0  0
   -4.8904    2.5340    0.0000 C   0  0
   -6.2223    3.2241    0.0000 O   0  0
   -5.3928    1.1206    0.0000 C   0  0  2  0  0  0
   -6.8721    1.4310    0.0000 C   0  0
   -7.3405    2.8569    0.0000 C   0  0
   -8.8081    3.1671    0.0000 C   0  0
   -9.2733    4.5931    0.0000 C   0  0
   -8.2710    5.7090    0.0000 C   0  0
   -8.7335    7.1368    0.0000 O   0  0
   -7.7296    8.2513    0.0000 C   0  0
   -6.8034    5.3989    0.0000 C   0  0
   -6.3381    3.9729    0.0000 C   0  0
   -5.4951   -0.3759    0.0000 N   0  0
   -6.9916   -0.4783    0.0000 C   0  0
   -5.1899   -1.8445    0.0000 C   0  0
   -6.6033   -2.3468    0.0000 O   0  0
   -4.4998   -3.1763    0.0000 C   0  0  2  0  0  0
   -5.8647   -3.8168    0.0000 C   0  0
   -5.6807   -5.3055    0.0000 C   0  0
   -4.2081   -5.5905    0.0000 C   0  0
   -3.4760   -4.2726    0.0000 N   0  0
   -2.1944   -5.0520    0.0000 C   0  0
   -2.7920   -6.4278    0.0000 O   0  0
   -0.7500   -5.4567    0.0000 C   0  0  2  0  0  0
   -0.9587   -6.9537    0.0000 C   0  0
   -2.3493   -7.5183    0.0000 C   0  0
   -2.5565   -9.0039    0.0000 C   0  0
   -3.5326   -6.5965    0.0000 C   0  0
    0.7500   -5.4567    0.0000 N   0  0
    2.1944   -5.0520    0.0000 C   0  0
    2.7920   -6.4278    0.0000 O   0  0
    3.4760   -4.2726    0.0000 C   0  0  1  0  0  0
    4.4227   -5.4361    0.0000 C   0  0
    4.4998   -3.1763    0.0000 C   0  0
    5.7253   -4.0413    0.0000 O   0  0
    5.1899   -1.8445    0.0000 C   0  0  2  0  0  0
    6.6152   -2.3479    0.0000 C   0  0
    7.7556   -1.3735    0.0000 C   0  0
    6.8893   -3.8226    0.0000 C   0  0
    5.4951   -0.3759    0.0000 O   0  0
    5.3928    1.1206    0.0000 C   0  0
    6.8614    1.4258    0.0000 O   0  0
    4.8904    2.5340    0.0000 C   0  0
    4.0254    3.7595    0.0000 C   0  0  2  0  0  0
    5.1217    4.7833    0.0000 O   0  0
  1  2  1  0
  2  3  1  0
  3  4  1  6
  3  5  1  0
  5  6  1  6
  6  7  1  0
  7  8  2  0
  7  9  1  0
  9 10  1  6
 10 11  1  0
 11 12  2  0
 11 13  1  0
 13 14  1  1
 14 15  1  0
 15 16  1  0
 15 17  1  0
 13 18  1  0
 18 19  1  0
 18 20  1  0
 20 21  2  0
 22 20  1  1
 22 23  1  0
 23 24  1  0
 24 25  1  0
 25 26  1  0
 26 22  1  0
 26 27  1  0
 27 28  2  0
 27 29  1  0
 29 30  1  4
 29 31  1  0
  9 32  1  0
 32 33  1  6
 32 34  1  0
 34 35  1  0
 35 36  2  0
 35 37  1  0
 37 38  1  1
 38 39  1  0
 39 40  2  0
 40 41  1  0
 41 42  2  0
 42 43  1  0
 43 44  1  0
 42 45  1  0
 45 46  2  0
 46 39  1  0
 37 47  1  0
 47 48  1  0
 47 49  1  0
 49 50  2  0
 49 51  1  0
 51 52  1  1
 52 53  1  0
 53 54  1  0
 54 55  1  0
 55 51  1  0
 55 56  1  0
 56 57  2  0
 56 58  1  0
 58 59  1  1
 59 60  1  0
 60 61  1  0
 60 62  1  0
 58 63  1  0
 63 64  1  0
 64 65  2  0
 64 66  1  0
 66 67  1  6
 66 68  1  0
 68 69  2  0
 68 70  1  0
 70 71  1  1
 71 72  1  0
 71 73  1  0
 70 74  1  0
 74 75  1  0
 75 76  2  0
 75 77  1  0
 77 78  1  0
 78  5  1  0
 78 79  1  1
M  END
> <assay_chembl_id>
CHEMBL1293011

> <assay_description>
Cytotoxicity against human LNCAP cells

> <document_journal>
J Med Chem

> <molecule_chembl_id>
CHEMBL2304286

> <standard_value>
2.8

> <IC50_uM>
0.0028

> <Activity>
Yes

> <Canonical_Smiles>
CC[C@H](C)[C@H]1NC(=O)[C@@H](NC(=O)[C@@H](CC(C)C)N(C)C(=O)[C@@H]2CCCN2C(=O)C(C)O)[C@@H](C)OC(=O)[C@H](Cc2ccc(OC)cc2)N(C)C(=O)[C@@H]2CCCN2C(=O)[C@H](CC(C)C)NC(=O)[C@@H](C)C(=O)[C@H](C(C)C)OC(=O)C[C@@H]
1O

$$$$

  SciTegic03142313312D

 36 40  0  0  1  0            999 V2000
   -7.7598    1.3535    0.0000 C   0  0
   -6.2600    1.3300    0.0000 C   0  0
   -5.5900    2.4800    0.0000 C   0  0
   -4.2200    2.4500    0.0000 C   0  0  1  0  0  0
   -3.4900    3.3100    0.0000 O   0  0
   -2.4800    2.9400    0.0000 C   0  0  2  0  0  0
   -0.8600    4.4000    0.0000 C   0  0
   -0.1900    3.2900    0.0000 C   0  0  1  0  0  0
    1.1800    3.3900    0.0000 O   0  0
    1.9700    2.2900    0.0000 C   0  0
    1.6613    0.8221    0.0000 O   0  0
    3.0200    2.9100    0.0000 C   0  0
    4.2400    2.3500    0.0000 C   0  0
    4.3300    1.0500    0.0000 C   0  0
    5.6800    0.4400    0.0000 C   0  0
    5.6700   -0.9500    0.0000 C   0  0
    7.0758   -1.4732    0.0000 O   0  0
    4.5800   -2.2300    0.0000 O   0  0
    3.3600   -3.0500    0.0000 C   0  0
    1.8500   -2.5200    0.0000 C   0  0
    0.7200   -3.3900    0.0000 C   0  0  1  0  0  0
    1.2131   -4.8066    0.0000 C   0  0
   -0.7300   -3.4100    0.0000 C   0  0  2  0  0  0
   -1.0226   -4.8812    0.0000 O   0  0
   -2.3100   -2.7300    0.0000 C   0  0
   -3.2986   -3.8581    0.0000 O   0  0
   -3.0500   -1.4900    0.0000 O   0  0
   -2.4300   -0.1200    0.0000 C   0  0
   -3.3500    1.3800    0.0000 C   0  0  2  0  0  0
   -4.0100    0.0100    0.0000 C   0  0
   -5.5400    0.0000    0.0000 C   0  0
   -1.5700    1.6400    0.0000 C   0  0  1  0  0  0
   -2.3018    2.9494    0.0000 C   0  0
   -1.3800    0.4200    0.0000 C   0  0  2  0  0  0
   -1.2800   -1.1200    0.0000 C   0  0
   -0.3800   -0.4700    0.0000 O   0  0
  1  2  1  0
  2  3  2  0
  4  3  1  1
  4  5  1  0
  6  5  1  6
  6  7  1  0
  8  7  1  1
  8  9  1  0
  9 10  1  0
 10 11  2  0
 10 12  1  0
 12 13  2  0
 13 14  1  0
 14 15  2  0
 15 16  1  0
 16 17  2  0
 16 18  1  0
 18 19  1  0
 19 20  1  0
 20 21  1  0
 21 22  1  1
 21 23  1  0
 23 24  1  6
 23 25  1  0
 25 26  2  0
 25 27  1  0
 27 28  1  0
 29 28  1  6
 29  4  1  0
 29 30  1  0
 30 31  1  0
 31  2  1  0
 29 32  1  0
 32  8  1  0
 32 33  1  6
 32 34  1  0
 34  6  1  0
 34 35  1  6
 35 36  1  0
 36 34  1  0
M  END
> <assay_chembl_id>
CHEMBL1293011

> <assay_description>
Cytotoxicity against human LNCAP cells

> <document_journal>
J Med Chem

> <molecule_chembl_id>
CHEMBL136985

> <standard_value>
3.3

> <IC50_uM>
0.0033

> <Activity>
Yes

> <Canonical_Smiles>
CC1=C[C@H]2O[C@@H]3C[C@H]4OC(=O)/C=C\C=C\C(=O)OCC[C@@H](C)[C@H](O)C(=O)OC[C@@]2(CC1)[C@]4(C)[C@]31CO1

$$$$

  SciTegic03142313312D

 39 43  0  0  1  0            999 V2000
    3.8983   -0.7459    0.0000 C   0  0
    2.6003   -1.4977    0.0000 O   0  0
    1.2990   -0.7500    0.0000 C   0  0
    1.2990    0.7500    0.0000 C   0  0
    0.0000    1.5000    0.0000 C   0  0
   -1.2990    0.7500    0.0000 C   0  0
   -1.2990   -0.7500    0.0000 C   0  0
    0.0000   -1.5000    0.0000 C   0  0
    0.0000   -3.0000    0.0000 C   0  0
    1.2990   -3.7500    0.0000 O   0  0
   -1.2990   -3.7500    0.0000 C   0  0
   -1.2990   -5.2500    0.0000 C   0  0
    0.0000   -6.0000    0.0000 O   0  0
   -2.5981   -6.0000    0.0000 C   0  0
   -3.8971   -5.2500    0.0000 C   0  0
   -3.8971   -3.7500    0.0000 C   0  0
   -5.1961   -3.0000    0.0000 O   0  0
   -2.5981   -3.0000    0.0000 C   0  0
   -2.5981   -1.5000    0.0000 C   0  0
   -3.8971   -0.7500    0.0000 O   0  0
   -5.1961   -6.0000    0.0000 C   0  0
   -5.1961   -7.5000    0.0000 C   0  0  1  0  0  0
   -6.4764   -6.7184    0.0000 O   0  0
   -5.1597   -8.9800    0.0000 C   0  0
   -6.4588   -9.7299    0.0000 O   0  0
   -3.8602   -9.7310    0.0000 C   0  0
   -3.8599  -11.2310    0.0000 O   0  0
   -3.8971   -8.2500    0.0000 C   0  0
   -2.5981   -7.5000    0.0000 C   0  0  2  0  0  0
   -1.2998   -8.2531    0.0000 O   0  0
   -1.3020   -9.7539    0.0000 C   0  0  1  0  0  0
   -0.0056  -10.5085    0.0000 C   0  0
   -0.0108  -12.0085    0.0000 C   0  0  2  0  0  0
    1.2857  -12.7630    0.0000 N   0  0
   -1.3124  -12.7540    0.0000 C   0  0  2  0  0  0
   -1.3176  -14.2540    0.0000 O   0  0
   -2.6088  -11.9995    0.0000 C   0  0  2  0  0  0
   -3.9104  -12.7450    0.0000 C   0  0
   -2.6036  -10.4995    0.0000 O   0  0
  1  2  1  0
  2  3  1  0
  3  4  2  0
  4  5  1  0
  5  6  2  0
  6  7  1  0
  7  8  2  0
  8  3  1  0
  8  9  1  0
  9 10  2  0
  9 11  1  0
 11 12  2  0
 12 13  1  0
 12 14  1  0
 14 15  2  0
 15 16  1  0
 16 17  1  0
 16 18  2  0
 18 11  1  0
 18 19  1  0
 19  7  1  0
 19 20  2  0
 15 21  1  0
 21 22  1  0
 22 23  1  1
 22 24  1  0
 24 25  2  0
 24 26  1  0
 26 27  1  0
 22 28  1  0
 28 29  1  0
 29 14  1  0
 29 30  1  1
 31 30  1  1
 31 32  1  0
 32 33  1  0
 33 34  1  6
 33 35  1  0
 35 36  1  6
 35 37  1  0
 37 38  1  6
 37 39  1  0
 39 31  1  0
M  END
> <assay_chembl_id>
CHEMBL1293011

> <assay_description>
Cytotoxicity against human LNCAP cells

> <document_journal>
J Med Chem

> <molecule_chembl_id>
CHEMBL53463

> <standard_value>
77.6

> <IC50_uM>
0.0776

> <Activity>
Yes

> <Canonical_Smiles>
COc1cccc2c1C(=O)c1c(O)c3c(c(O)c1C2=O)C[C@@](O)(C(=O)CO)C[C@@H]3O[C@H]1C[C@H](N)[C@H](O)[C@H](C)O1

$$$$

  SciTegic03142313312D

 73 76  0  0  1  0            999 V2000
    3.8999   -5.2449    0.0000 C   0  0
    3.9003   -3.7449    0.0000 C   0  0
    5.1998   -2.9940    0.0000 C   0  0  2  0  0  0
    6.4989   -3.7440    0.0000 C   0  0
    5.2003   -1.4932    0.0000 C   0  0  2  0  0  0
    3.8990   -0.7455    0.0000 N   0  0
    2.6003   -1.4977    0.0000 C   0  0
    2.6030   -2.9977    0.0000 O   0  0
    1.2990   -0.7500    0.0000 C   0  0  1  0  0  0
    1.2990    0.7500    0.0000 C   0  0
    0.0000    1.5000    0.0000 C   0  0
   -1.2990    0.7500    0.0000 C   0  0
   -1.2990   -0.7500    0.0000 C   0  0
    0.0000   -1.5000    0.0000 N   0  0
    0.0000   -3.0000    0.0000 C   0  0
    6.4990   -0.7409    0.0000 C   0  0
    6.4964    0.7591    0.0000 O   0  0
    7.8003   -1.4887    0.0000 N   0  0
    7.8060   -2.9895    0.0000 C   0  0
    9.1081   -3.7358    0.0000 O   0  0
    9.1138   -5.2366    0.0000 C   0  0
    7.8174   -5.9911    0.0000 O   0  0
   10.4159   -5.9829    0.0000 C   0  0
   10.4217   -7.4837    0.0000 C   0  0
   11.7231   -8.2296    0.0000 C   0  0
    9.1252   -8.2382    0.0000 C   0  0
    9.0990   -0.7364    0.0000 C   0  0  2  0  0  0
   10.4003   -1.4841    0.0000 C   0  0
   11.6990   -0.7319    0.0000 C   0  0  1  0  0  0
   11.6933    0.7689    0.0000 O   0  0
   12.9897    1.5251    0.0000 C   0  0
   14.2918    0.7805    0.0000 C   0  0
   12.9840    3.0251    0.0000 O   0  0
   13.0002   -1.4796    0.0000 C   0  0
   14.3516   -0.8586    0.0000 N   0  0
   15.3553   -1.9733    0.0000 C   0  0
   16.8457   -1.8198    0.0000 C   0  0
   17.4582   -0.4505    0.0000 O   0  0
   17.7261   -3.0352    0.0000 N   0  0
   19.2190   -2.8814    0.0000 C   0  0  1  0  0  0
   19.8347   -1.5127    0.0000 C   0  0
   21.3278   -1.3606    0.0000 C   0  0
   21.9451    0.0066    0.0000 C   0  0
   23.4377    0.1556    0.0000 C   0  0
   24.3131   -1.0625    0.0000 C   0  0
   25.8056   -0.9135    0.0000 C   0  0
   23.6958   -2.4297    0.0000 C   0  0
   22.2032   -2.5787    0.0000 C   0  0
   20.0995   -4.0969    0.0000 C   0  0
   19.4879   -5.4675    0.0000 C   0  0  2  0  0  0
   17.9960   -5.6226    0.0000 C   0  0
   20.3683   -6.6829    0.0000 C   0  0
   21.8603   -6.5278    0.0000 O   0  0
   19.7568   -8.0535    0.0000 N   0  0
   20.6372   -9.2690    0.0000 N   0  0
   20.0257  -10.6396    0.0000 C   0  0
   18.5337  -10.7947    0.0000 O   0  0
   20.9061  -11.8550    0.0000 O   0  0
   20.2946  -13.2256    0.0000 C   0  0
   21.1750  -14.4411    0.0000 C   0  0
   20.5634  -15.8116    0.0000 S   0  0
   21.4439  -17.0271    0.0000 S   0  0
   20.8323  -18.3977    0.0000 C   0  0
   21.7105  -19.6138    0.0000 C   0  0
   21.0965  -20.9824    0.0000 C   0  0
   19.6043  -21.1349    0.0000 N   0  0
   18.7261  -19.9189    0.0000 C   0  0
   19.3400  -18.5503    0.0000 C   0  0
   14.6053   -3.2723    0.0000 C   0  0
   13.1381   -2.9605    0.0000 S   0  0
    9.0994    0.7644    0.0000 C   0  0
   10.3982    1.5148    0.0000 C   0  0
    7.8004    1.5144    0.0000 C   0  0
  1  2  1  0
  2  3  1  0
  3  4  1  1
  3  5  1  0
  5  6  1  6
  6  7  1  0
  7  8  2  0
  9  7  1  6
  9 10  1  0
 10 11  1  0
 11 12  1  0
 12 13  1  0
 13 14  1  0
 14  9  1  0
 14 15  1  0
  5 16  1  0
 16 17  2  0
 16 18  1  0
 18 19  1  0
 19 20  1  0
 20 21  1  0
 21 22  2  0
 21 23  1  0
 23 24  1  0
 24 25  1  0
 24 26  1  0
 18 27  1  0
 27 28  1  1
 29 28  1  1
 29 30  1  0
 30 31  1  0
 31 32  1  0
 31 33  2  0
 29 34  1  0
 34 35  2  0
 35 36  1  0
 36 37  1  0
 37 38  2  0
 37 39  1  0
 40 39  1  1
 40 41  1  0
 41 42  1  0
 42 43  2  0
 43 44  1  0
 44 45  2  0
 45 46  1  0
 45 47  1  0
 47 48  2  0
 48 42  1  0
 40 49  1  0
 49 50  1  0
 50 51  1  1
 50 52  1  0
 52 53  2  0
 52 54  1  0
 54 55  1  0
 55 56  1  0
 56 57  2  0
 56 58  1  0
 58 59  1  0
 59 60  1  0
 60 61  1  0
 61 62  1  0
 62 63  1  0
 63 64  2  0
 64 65  1  0
 65 66  2  0
 66 67  1  0
 67 68  2  0
 68 63  1  0
 36 69  2  0
 69 70  1  0
 70 34  1  0
 27 71  1  0
 71 72  1  0
 71 73  1  0
M  END
> <assay_chembl_id>
CHEMBL1293011

> <assay_description>
Cytotoxicity against human LNCAP cells

> <document_journal>
J Med Chem

> <molecule_chembl_id>
CHEMBL1288704

> <standard_value>
3.7

> <IC50_uM>
0.0037

> <Activity>
Yes

> <Canonical_Smiles>
CC[C@H](C)[C@H](NC(=O)[C@H]1CCCCN1C)C(=O)N(COC(=O)CC(C)C)[C@H](C[C@@H](OC(C)=O)c1nc(C(=O)N[C@@H](Cc2ccc(C)cc2)C[C@H](C)C(=O)NNC(=O)OCCSSc2ccncc2)cs1)C(C)C

$$$$

  SciTegic03142313312D

 59 61  0  0  1  0            999 V2000
    3.8999   -5.2449    0.0000 C   0  0
    3.9003   -3.7449    0.0000 C   0  0
    5.1998   -2.9940    0.0000 C   0  0  2  0  0  0
    6.4989   -3.7440    0.0000 C   0  0
    5.2003   -1.4932    0.0000 C   0  0  2  0  0  0
    3.8990   -0.7455    0.0000 N   0  0
    2.6003   -1.4977    0.0000 C   0  0
    2.6030   -2.9977    0.0000 O   0  0
    1.2990   -0.7500    0.0000 C   0  0  1  0  0  0
    1.2990    0.7500    0.0000 C   0  0
    0.0000    1.5000    0.0000 C   0  0
   -1.2990    0.7500    0.0000 C   0  0
   -1.2990   -0.7500    0.0000 C   0  0
    0.0000   -1.5000    0.0000 N   0  0
    0.0000   -3.0000    0.0000 C   0  0
    6.4990   -0.7409    0.0000 C   0  0
    6.4964    0.7591    0.0000 O   0  0
    7.8003   -1.4887    0.0000 N   0  0
    7.8060   -2.9895    0.0000 C   0  0
    9.1081   -3.7358    0.0000 O   0  0
    9.1138   -5.2366    0.0000 C   0  0
    7.8174   -5.9911    0.0000 O   0  0
   10.4159   -5.9829    0.0000 C   0  0
   10.4217   -7.4837    0.0000 C   0  0
   11.7231   -8.2296    0.0000 C   0  0
    9.1252   -8.2382    0.0000 C   0  0
    9.0990   -0.7364    0.0000 C   0  0  2  0  0  0
   10.4003   -1.4841    0.0000 C   0  0
   11.6990   -0.7319    0.0000 C   0  0  1  0  0  0
   11.6933    0.7689    0.0000 O   0  0
   12.9897    1.5251    0.0000 C   0  0
   14.2918    0.7805    0.0000 C   0  0
   12.9840    3.0251    0.0000 O   0  0
   13.0002   -1.4796    0.0000 C   0  0
   14.3516   -0.8586    0.0000 N   0  0
   15.3553   -1.9733    0.0000 C   0  0
   16.8457   -1.8198    0.0000 C   0  0
   17.4582   -0.4505    0.0000 O   0  0
   17.7261   -3.0352    0.0000 N   0  0
   19.2190   -2.8814    0.0000 C   0  0  1  0  0  0
   20.0995   -4.0969    0.0000 C   0  0
   19.4879   -5.4675    0.0000 C   0  0
   20.3661   -6.6836    0.0000 C   0  0
   19.7521   -8.0522    0.0000 C   0  0
   18.2599   -8.2047    0.0000 C   0  0
   17.6459   -9.5733    0.0000 C   0  0
   17.3817   -6.9887    0.0000 C   0  0
   17.9956   -5.6201    0.0000 C   0  0
   19.8347   -1.5127    0.0000 C   0  0
   21.3278   -1.3606    0.0000 C   0  0  2  0  0  0
   22.2052   -2.5772    0.0000 C   0  0
   21.9435    0.0082    0.0000 C   0  0
   23.4357    0.1602    0.0000 O   0  0
   21.0660    1.2248    0.0000 O   0  0
   14.6053   -3.2723    0.0000 C   0  0
   13.1381   -2.9605    0.0000 S   0  0
    9.0994    0.7644    0.0000 C   0  0
   10.3982    1.5148    0.0000 C   0  0
    7.8004    1.5144    0.0000 C   0  0
  1  2  1  0
  2  3  1  0
  3  4  1  1
  3  5  1  0
  5  6  1  6
  6  7  1  0
  7  8  2  0
  9  7  1  6
  9 10  1  0
 10 11  1  0
 11 12  1  0
 12 13  1  0
 13 14  1  0
 14  9  1  0
 14 15  1  0
  5 16  1  0
 16 17  2  0
 16 18  1  0
 18 19  1  0
 19 20  1  0
 20 21  1  0
 21 22  2  0
 21 23  1  0
 23 24  1  0
 24 25  1  0
 24 26  1  0
 18 27  1  0
 27 28  1  1
 29 28  1  1
 29 30  1  0
 30 31  1  0
 31 32  1  0
 31 33  2  0
 29 34  1  0
 34 35  2  0
 35 36  1  0
 36 37  1  0
 37 38  2  0
 37 39  1  0
 40 39  1  6
 40 41  1  0
 41 42  1  0
 42 43  2  0
 43 44  1  0
 44 45  2  0
 45 46  1  0
 45 47  1  0
 47 48  2  0
 48 42  1  0
 40 49  1  0
 49 50  1  0
 50 51  1  1
 50 52  1  0
 52 53  2  0
 52 54  1  0
 36 55  2  0
 55 56  1  0
 56 34  1  0
 27 57  1  0
 57 58  1  0
 57 59  1  0
M  END
> <assay_chembl_id>
CHEMBL1293011

> <assay_description>
Cytotoxicity against human LNCAP cells

> <document_journal>
J Med Chem

> <molecule_chembl_id>
CHEMBL1288708

> <standard_value>
2.5

> <IC50_uM>
0.0025

> <Activity>
Yes

> <Canonical_Smiles>
CC[C@H](C)[C@H](NC(=O)[C@H]1CCCCN1C)C(=O)N(COC(=O)CC(C)C)[C@H](C[C@@H](OC(C)=O)c1nc(C(=O)N[C@@H](Cc2ccc(C)cc2)C[C@H](C)C(=O)O)cs1)C(C)C

$$$$

  SciTegic03142313312D

 56 64  0  0  1  0            999 V2000
    1.0595    3.0159    0.0000 C   0  0
    1.0617    4.5159    0.0000 C   0  0
   -0.2000    5.2900    0.0000 C   0  0  2  0  0  0
   -0.2341    6.7896    0.0000 O   0  0
   -0.2000    4.0900    0.0000 C   0  0
   -1.2300    3.5100    0.0000 C   0  0  2  0  0  0
   -2.2500    4.0900    0.0000 C   0  0
   -2.2500    5.2900    0.0000 N   0  0  3  0  0  0
   -3.9200    5.5000    0.0000 C   0  0
   -5.4100    4.7800    0.0000 C   0  0
   -5.7000    3.1300    0.0000 C   0  0
   -4.9700    1.7900    0.0000 C   0  0
   -6.0100    0.6800    0.0000 N   0  0
   -7.4000    1.3200    0.0000 C   0  0
   -8.8100    0.7400    0.0000 C   0  0
  -10.0200    1.6700    0.0000 C   0  0
   -9.8300    3.1800    0.0000 C   0  0
   -8.4200    3.7700    0.0000 C   0  0
   -7.2000    2.8400    0.0000 C   0  0
   -3.3800    1.2800    0.0000 C   0  0  1  0  0  0
   -4.3011    0.1350    0.0000 C   0  0
   -5.7734    0.4218    0.0000 O   0  0
   -3.8135   -1.2844    0.0000 O   0  0
   -4.7977   -2.4164    0.0000 C   0  0
   -2.3301    0.2513    0.0000 C   0  0
   -2.7110   -1.1720    0.0000 C   0  0
   -1.6165   -2.2180    0.0000 C   0  0
   -0.2693   -1.8150    0.0000 C   0  0
    0.1414   -0.3694    0.0000 C   0  0
   -0.9061    0.6597    0.0000 C   0  0
   -0.5303    2.1129    0.0000 O   0  0
    0.9149    2.5147    0.0000 C   0  0
    0.6269   -3.0200    0.0000 N   0  0
    2.1267   -3.0420    0.0000 C   0  0
   -0.2779   -4.1651    0.0000 C   0  0  1  0  0  0
   -0.0140   -5.6041    0.0000 C   0  0  1  0  0  0
    1.0936   -4.5926    0.0000 O   0  0
    0.7146   -6.8921    0.0000 C   0  0
    2.2144   -6.8669    0.0000 O   0  0
   -0.0135   -8.2045    0.0000 N   0  0
    0.7578   -9.4910    0.0000 N   0  0
   -1.1529   -6.6124    0.0000 C   0  0  2  0  0  0
   -0.8688   -8.0852    0.0000 O   0  0
   -2.5335   -6.1188    0.0000 C   0  0  2  0  0  0
   -2.2630   -7.5946    0.0000 C   0  0
   -3.4048   -8.5674    0.0000 C   0  0
   -3.6287   -7.0542    0.0000 C   0  0
   -5.0406   -6.5494    0.0000 C   0  0
   -5.3459   -4.5824    0.0000 C   0  0
   -4.0445   -3.8623    0.0000 N   0  0  3  0  0  0
   -3.7291   -2.4358    0.0000 C   0  0
   -2.2452   -2.2939    0.0000 C   0  0
   -1.6741   -3.6659    0.0000 C   0  0  2  0  0  0
   -2.8019   -4.6427    0.0000 C   0  0  2  0  0  0
   -1.8700    1.9700    0.0000 C   0  0
   -1.2300    5.8900    0.0000 C   0  0
  1  2  1  0
  2  3  1  0
  3  4  1  1
  3  5  1  0
  6  5  1  1
  6  7  1  0
  8  7  1  4
  8  9  1  0
  9 10  1  0
 10 11  1  0
 11 12  2  0
 12 13  1  0
 13 14  1  0
 14 15  2  0
 15 16  1  0
 16 17  2  0
 17 18  1  0
 18 19  2  0
 19 11  1  0
 19 14  1  0
 12 20  1  0
 20 21  1  1
 21 22  2  0
 21 23  1  0
 23 24  1  0
 20 25  1  0
 25 26  2  0
 26 27  1  0
 27 28  2  0
 28 29  1  0
 29 30  2  0
 30 25  1  0
 30 31  1  0
 31 32  1  0
 28 33  1  0
 33 34  1  0
 35 33  1  1
 35 36  1  0
 36 37  1  6
 36 38  1  0
 38 39  2  0
 38 40  1  0
 40 41  1  0
 36 42  1  0
 42 43  1  6
 42 44  1  0
 44 45  1  1
 45 46  1  0
 44 47  1  0
 47 48  2  0
 48 49  1  0
 50 49  1  4
 50 51  1  0
 51 52  1  0
 53 52  1  6
 53 27  1  0
 53 35  1  0
 53 54  1  0
 54 50  1  6
 54 44  1  0
 20 55  1  0
 55  6  1  0
  8 56  1  0
 56  3  1  0
M  END
> <assay_chembl_id>
CHEMBL1293011

> <assay_description>
Cytotoxicity against human LNCAP cells

> <document_journal>
J Med Chem

> <molecule_chembl_id>
CHEMBL1288707

> <standard_value>
12.2

> <IC50_uM>
0.0122

> <Activity>
Yes

> <Canonical_Smiles>
CC[C@]1(O)C[C@@H]2CN(CCc3c([nH]c4ccccc34)[C@@](C(=O)OC)(c3cc4c(cc3OC)N(C)[C@H]3[C@@](O)(C(=O)NN)[C@H](O)[C@]5(CC)C=CCN6CC[C@]43[C@@H]65)C2)C1

$$$$

  SciTegic03142313312D

 55 63  0  0  1  0            999 V2000
    2.3980    5.1974    0.0000 C   0  0
    1.0617    4.5159    0.0000 C   0  0
   -0.2000    5.2900    0.0000 C   0  0  2  0  0  0
   -0.2341    6.7896    0.0000 O   0  0
   -0.2000    4.0900    0.0000 C   0  0
   -1.2300    3.5100    0.0000 C   0  0  2  0  0  0
   -2.2500    4.0900    0.0000 C   0  0
   -2.2500    5.2900    0.0000 N   0  0  3  0  0  0
   -3.9200    5.5000    0.0000 C   0  0
   -5.4100    4.7800    0.0000 C   0  0
   -5.7000    3.1300    0.0000 C   0  0
   -4.9700    1.7900    0.0000 C   0  0
   -6.0100    0.6800    0.0000 N   0  0
   -7.4000    1.3200    0.0000 C   0  0
   -8.8100    0.7400    0.0000 C   0  0
  -10.0200    1.6700    0.0000 C   0  0
   -9.8300    3.1800    0.0000 C   0  0
   -8.4200    3.7700    0.0000 C   0  0
   -7.2000    2.8400    0.0000 C   0  0
   -3.3800    1.2800    0.0000 C   0  0  1  0  0  0
   -4.3011    0.1350    0.0000 C   0  0
   -5.7734    0.4218    0.0000 O   0  0
   -3.8135   -1.2844    0.0000 O   0  0
   -4.7977   -2.4164    0.0000 C   0  0
   -2.3301    0.2513    0.0000 C   0  0
   -2.7110   -1.1720    0.0000 C   0  0
   -1.6165   -2.2180    0.0000 C   0  0
   -0.2693   -1.8150    0.0000 C   0  0
    0.1414   -0.3694    0.0000 C   0  0
   -0.9061    0.6597    0.0000 C   0  0
   -0.5303    2.1129    0.0000 O   0  0
    0.4332    2.3808    0.0000 C   0  0
    0.6269   -3.0200    0.0000 N   0  0
    2.1267   -3.0420    0.0000 C   0  0
   -0.2779   -4.1651    0.0000 C   0  0  1  0  0  0
   -0.0140   -5.6041    0.0000 C   0  0  1  0  0  0
    1.0936   -4.5926    0.0000 O   0  0
    0.7146   -6.8921    0.0000 C   0  0
    2.2144   -6.8669    0.0000 N   0  0
    0.2295   -7.7666    0.0000 O   0  0
   -1.1529   -6.6124    0.0000 C   0  0  2  0  0  0
   -0.9635   -7.5943    0.0000 O   0  0
   -2.5335   -6.1188    0.0000 C   0  0  2  0  0  0
   -2.2630   -7.5946    0.0000 C   0  0
   -3.0242   -8.2431    0.0000 C   0  0
   -3.6287   -7.0542    0.0000 C   0  0
   -5.0406   -6.5494    0.0000 C   0  0
   -5.3459   -4.5824    0.0000 C   0  0
   -4.0445   -3.8623    0.0000 N   0  0  3  0  0  0
   -3.7291   -2.4358    0.0000 C   0  0
   -2.2452   -2.2939    0.0000 C   0  0
   -1.6741   -3.6659    0.0000 C   0  0  2  0  0  0
   -2.8019   -4.6427    0.0000 C   0  0  2  0  0  0
   -1.8700    1.9700    0.0000 C   0  0
   -1.2300    5.8900    0.0000 C   0  0
  1  2  1  0
  2  3  1  0
  3  4  1  1
  3  5  1  0
  6  5  1  1
  6  7  1  0
  8  7  1  4
  8  9  1  0
  9 10  1  0
 10 11  1  0
 11 12  2  0
 12 13  1  0
 13 14  1  0
 14 15  2  0
 15 16  1  0
 16 17  2  0
 17 18  1  0
 18 19  2  0
 19 11  1  0
 19 14  1  0
 12 20  1  0
 20 21  1  1
 21 22  2  0
 21 23  1  0
 23 24  1  0
 20 25  1  0
 25 26  2  0
 26 27  1  0
 27 28  2  0
 28 29  1  0
 29 30  2  0
 30 25  1  0
 30 31  1  0
 31 32  1  0
 28 33  1  0
 33 34  1  0
 35 33  1  1
 35 36  1  0
 36 37  1  6
 36 38  1  0
 38 39  1  0
 38 40  2  0
 36 41  1  0
 41 42  1  6
 41 43  1  0
 43 44  1  1
 44 45  1  0
 43 46  1  0
 46 47  2  0
 47 48  1  0
 49 48  1  4
 49 50  1  0
 50 51  1  0
 52 51  1  6
 52 27  1  0
 52 35  1  0
 52 53  1  0
 53 49  1  6
 53 43  1  0
 20 54  1  0
 54  6  1  0
  8 55  1  0
 55  3  1  0
M  END
> <assay_chembl_id>
CHEMBL1293011

> <assay_description>
Cytotoxicity against human LNCAP cells

> <document_journal>
J Med Chem

> <molecule_chembl_id>
CHEMBL238071

> <standard_value>
9.5

> <IC50_uM>
0.0095

> <Activity>
Yes

> <Canonical_Smiles>
CC[C@]1(O)C[C@@H]2CN(CCc3c([nH]c4ccccc34)[C@@](C(=O)OC)(c3cc4c(cc3OC)N(C)[C@H]3[C@@](O)(C(N)=O)[C@H](O)[C@]5(CC)C=CCN6CC[C@]43[C@@H]65)C2)C1

$$$$

  SciTegic03142313312D

 20 22  0  0  0  0            999 V2000
    2.5981   -1.5000    0.0000 O   0  0
    1.2990   -0.7500    0.0000 C   0  0
    1.2990    0.7500    0.0000 C   0  0
    2.5987    1.5004    0.0000 C   0  0
    3.8991    0.7525    0.0000 C   0  0
    5.1969    1.5046    0.0000 C   0  0
    5.1945    3.0046    0.0000 C   0  0
    6.4923    3.7567    0.0000 O   0  0
    3.8943    3.7525    0.0000 C   0  0
    2.5964    3.0004    0.0000 C   0  0
    0.0000    1.5000    0.0000 C   0  0
   -1.2990    0.7500    0.0000 O   0  0
   -1.2990   -0.7500    0.0000 C   0  0
   -2.5981   -1.5000    0.0000 C   0  0
   -2.5981   -3.0000    0.0000 C   0  0
   -3.8971   -3.7500    0.0000 O   0  0
   -1.2990   -3.7500    0.0000 C   0  0
    0.0000   -3.0000    0.0000 C   0  0
    1.2991   -3.7500    0.0000 O   0  0
    0.0000   -1.5000    0.0000 C   0  0
  1  2  2  0
  2  3  1  0
  3  4  1  0
  4  5  2  0
  5  6  1  0
  6  7  2  0
  7  8  1  0
  7  9  1  0
  9 10  2  0
 10  4  1  0
  3 11  2  0
 11 12  1  0
 12 13  1  0
 13 14  2  0
 14 15  1  0
 15 16  1  0
 15 17  2  0
 17 18  1  0
 18 19  1  0
 18 20  2  0
 20  2  1  0
 20 13  1  0
M  END
> <assay_chembl_id>
CHEMBL1647064

> <assay_description>
Cytotoxicity against human LNCAP cells after 72 hrs by SRB assay

> <document_journal>
Bioorg Med Chem

> <molecule_chembl_id>
CHEMBL44

> <standard_value>
30650

> <IC50_uM>
30.65

> <Activity>
No

> <Canonical_Smiles>
O=c1c(-c2ccc(O)cc2)coc2cc(O)cc(O)c12

$$$$

  SciTegic03142313312D

 21 23  0  0  0  0            999 V2000
    1.9315   -7.6721    0.0000 C   0  0
    0.7110   -6.8002    0.0000 C   0  0
    0.8547   -5.3088    0.0000 C   0  0  3  0  0  0
    2.1489   -4.5503    0.0000 C   0  0
    1.8253   -3.1044    0.0000 C   0  0  3  0  0  0
    3.3184   -3.2484    0.0000 O   0  0
    2.4266   -1.7302    0.0000 C   0  0
    1.2990   -0.7500    0.0000 C   0  0  3  0  0  0
    2.6640   -0.1279    0.0000 O   0  0
    1.2990    0.7500    0.0000 C   0  0
    0.0000    1.5000    0.0000 C   0  0
   -1.2990    0.7500    0.0000 C   0  0
   -1.2990   -0.7500    0.0000 C   0  0
    0.0000   -1.5000    0.0000 C   0  0  3  0  0  0
    0.3326   -2.9571    0.0000 C   0  0  3  0  0  0
   -0.6629   -2.8614    0.0000 O   0  0
   -0.2665   -4.3124    0.0000 C   0  0  3  0  0  0
   -0.9273   -3.5619    0.0000 O   0  0
   -0.6972   -5.7363    0.0000 C   0  0
   -2.1527   -6.1021    0.0000 C   0  0
   -2.5645   -7.5445    0.0000 C   0  0
  1  2  2  0
  3  2  1  4
  3  4  1  0
  4  5  1  0
  5  6  1  4
  5  7  1  0
  7  8  1  0
  8  9  1  4
  8 10  1  0
 10 11  1  0
 11 12  1  0
 12 13  2  0
 14 13  1  4
 14  8  1  0
 14 15  1  0
 15  5  1  0
 15 16  1  4
 15 17  1  0
 17  3  1  0
 17 18  1  4
 17 19  1  0
 19 20  1  0
 20 21  1  0
M  END
> <assay_chembl_id>
CHEMBL1687524

> <assay_description>
Induction of apoptosis in human androgen-dependent LNCAP cells assessed as nuclei DNA fragmentation after 24 hrs by MTT assay

> <document_journal>
Bioorg Med Chem Lett

> <molecule_chembl_id>
CHEMBL475046

> <standard_value>
95000

> <IC50_uM>
95

> <Activity>
No

> <Canonical_Smiles>
C=CC1CC2(O)CC3(O)CCC=CC3C2(O)C1(O)CCC

$$$$

  SciTegic03142313312D

 29 33  0  0  1  0            999 V2000
    2.5951   -3.0031    0.0000 C   0  0
    2.5973   -1.5031    0.0000 C   0  0
    1.2990   -0.7500    0.0000 C   0  0
    1.2990    0.7500    0.0000 C   0  0
    0.0000    1.5000    0.0000 C   0  0
   -1.2990    0.7500    0.0000 N   0  0
   -1.2990   -0.7500    0.0000 C   0  0
   -2.5981   -1.5000    0.0000 C   0  0
   -2.5981   -3.0000    0.0000 C   0  0
   -1.2990   -3.7500    0.0000 C   0  0
    0.0000   -3.0000    0.0000 C   0  0
    0.0000   -1.5000    0.0000 C   0  0
    0.3114    2.9665    0.0000 C   0  0
   -0.5701    4.1788    0.0000 C   0  0
   -2.0619    4.0217    0.0000 N   0  0
    0.0400    5.5491    0.0000 C   0  0
    1.5318    5.7059    0.0000 C   0  0
    2.4134    4.4924    0.0000 C   0  0
    3.9053    4.6488    0.0000 O   0  0
    1.8032    3.1233    0.0000 N   0  0
    2.4133    1.7530    0.0000 C   0  0
    2.1419    7.0762    0.0000 C   0  0
    1.2602    8.2897    0.0000 O   0  0
   -0.2316    8.1329    0.0000 C   0  0
   -1.1133    9.3465    0.0000 O   0  0
   -0.8417    6.7626    0.0000 C   0  0  1  0  0  0
   -1.6934    7.9974    0.0000 O   0  0
   -1.4104    5.3957    0.0000 C   0  0
   -2.8925    5.1651    0.0000 C   0  0
  1  2  1  0
  2  3  1  0
  3  4  2  0
  4  5  1  0
  5  6  2  0
  6  7  1  0
  7  8  2  0
  8  9  1  0
  9 10  2  0
 10 11  1  0
 11 12  2  0
 12  3  1  0
 12  7  1  0
  5 13  1  0
 13 14  2  0
 14 15  1  0
 14 16  1  0
 16 17  2  0
 17 18  1  0
 18 19  2  0
 18 20  1  0
 20 13  1  0
 20 21  1  0
 21  4  1  0
 17 22  1  0
 22 23  1  0
 23 24  1  0
 24 25  2  0
 24 26  1  0
 26 16  1  0
 26 27  1  6
 26 28  1  0
 28 29  1  0
M  END
> <assay_chembl_id>
CHEMBL1693143

> <assay_description>
Cytotoxicity against human LNCAP cells after 72 hrs by alamar blue assay

> <document_journal>
J Med Chem

> <molecule_chembl_id>
CHEMBL1688857

> <standard_value>
120

> <IC50_uM>
0.12

> <Activity>
Yes

> <Canonical_Smiles>
CCc1c2c(nc3ccccc13)-c1c(N)c3c(c(=O)n1C2)COC(=O)[C@]3(O)CC

$$$$

  SciTegic03142313312D

 27 31  0  0  1  0            999 V2000
    2.5228   -3.0436    0.0000 C   0  0
    1.2626   -2.2300    0.0000 C   0  0
    1.2990   -0.7500    0.0000 C   0  0  1  0  0  0
    2.5793    0.0316    0.0000 O   0  0
    1.2990    0.7500    0.0000 C   0  0
    2.5981    1.5000    0.0000 O   0  0
    0.0000    1.5000    0.0000 O   0  0
   -1.2990    0.7500    0.0000 C   0  0
   -1.2990   -0.7500    0.0000 C   0  0
    0.0000   -1.5000    0.0000 C   0  0
    0.0000   -3.0000    0.0000 C   0  0
    1.2990   -3.7500    0.0000 N   0  0
   -1.2990   -3.7500    0.0000 C   0  0
   -2.5981   -3.0000    0.0000 N   0  0
   -2.5981   -1.5000    0.0000 C   0  0
   -3.8971   -0.7500    0.0000 O   0  0
   -3.7124   -4.0030    0.0000 C   0  0
   -3.1022   -5.3733    0.0000 C   0  0
   -3.7125   -6.7424    0.0000 C   0  0
   -2.8308   -7.9559    0.0000 C   0  0
   -3.4409   -9.3262    0.0000 C   0  0
   -2.5592  -10.5397    0.0000 C   0  0
   -1.0674  -10.3829    0.0000 C   0  0
   -0.4573   -9.0126    0.0000 C   0  0
   -1.3390   -7.7991    0.0000 C   0  0
   -0.7289   -6.4288    0.0000 N   0  0
   -1.6105   -5.2165    0.0000 C   0  0
  1  2  1  0
  2  3  1  0
  3  4  1  1
  3  5  1  0
  5  6  2  0
  5  7  1  0
  7  8  1  0
  8  9  1  0
  9 10  2  0
 10  3  1  0
 10 11  1  0
 11 12  1  0
 11 13  2  0
 13 14  1  0
 14 15  1  0
 15  9  1  0
 15 16  2  0
 14 17  1  0
 17 18  1  0
 18 19  2  0
 19 20  1  0
 20 21  2  0
 21 22  1  0
 22 23  2  0
 23 24  1  0
 24 25  2  0
 25 20  1  0
 25 26  1  0
 26 27  2  0
 27 18  1  0
 27 13  1  0
M  END
> <assay_chembl_id>
CHEMBL1693143

> <assay_description>
Cytotoxicity against human LNCAP cells after 72 hrs by alamar blue assay

> <document_journal>
J Med Chem

> <molecule_chembl_id>
CHEMBL1688855

> <standard_value>
110

> <IC50_uM>
0.11

> <Activity>
Yes

> <Canonical_Smiles>
CC[C@@]1(O)C(=O)OCc2c1c(N)c1n(c2=O)Cc2cc3ccccc3nc2-1

$$$$

  SciTegic03142313312D

 31 35  0  0  1  0            999 V2000
    2.5228   -3.0436    0.0000 C   0  0
    1.2626   -2.2300    0.0000 C   0  0
    1.2990   -0.7500    0.0000 C   0  0  1  0  0  0
    2.5793    0.0316    0.0000 O   0  0
    1.2990    0.7500    0.0000 C   0  0
    2.5981    1.5000    0.0000 O   0  0
    0.0000    1.5000    0.0000 O   0  0
   -1.2990    0.7500    0.0000 C   0  0
   -1.2990   -0.7500    0.0000 C   0  0
    0.0000   -1.5000    0.0000 C   0  0
    0.0000   -3.0000    0.0000 C   0  0
   -1.2990   -3.7500    0.0000 C   0  0
   -2.5981   -3.0000    0.0000 N   0  0
   -2.5981   -1.5000    0.0000 C   0  0
   -3.8971   -0.7500    0.0000 O   0  0
   -3.7124   -4.0030    0.0000 C   0  0
   -3.1022   -5.3733    0.0000 C   0  0
   -3.7125   -6.7424    0.0000 C   0  0
   -2.8308   -7.9559    0.0000 C   0  0
   -3.4409   -9.3262    0.0000 C   0  0
   -4.9332   -9.4862    0.0000 C   0  0
   -5.5417  -10.8581    0.0000 N   0  0
   -7.0331  -11.0180    0.0000 C   0  0
   -4.6579  -12.0701    0.0000 C   0  0
   -2.5592  -10.5397    0.0000 C   0  0
   -3.1693  -11.9101    0.0000 O   0  0
   -1.0674  -10.3829    0.0000 C   0  0
   -0.4573   -9.0126    0.0000 C   0  0
   -1.3390   -7.7991    0.0000 C   0  0
   -0.7289   -6.4288    0.0000 N   0  0
   -1.6105   -5.2165    0.0000 C   0  0
  1  2  1  0
  2  3  1  0
  3  4  1  1
  3  5  1  0
  5  6  2  0
  5  7  1  0
  7  8  1  0
  8  9  1  0
  9 10  2  0
 10  3  1  0
 10 11  1  0
 11 12  2  0
 12 13  1  0
 13 14  1  0
 14  9  1  0
 14 15  2  0
 13 16  1  0
 16 17  1  0
 17 18  2  0
 18 19  1  0
 19 20  2  0
 20 21  1  0
 21 22  1  0
 22 23  1  0
 22 24  1  0
 20 25  1  0
 25 26  1  0
 25 27  2  0
 27 28  1  0
 28 29  2  0
 29 19  1  0
 29 30  1  0
 30 31  2  0
 31 17  1  0
 31 12  1  0
M  END
> <assay_chembl_id>
CHEMBL1693143

> <assay_description>
Cytotoxicity against human LNCAP cells after 72 hrs by alamar blue assay

> <document_journal>
J Med Chem

> <molecule_chembl_id>
CHEMBL84

> <standard_value>
9

> <IC50_uM>
0.009

> <Activity>
Yes

> <Canonical_Smiles>
CC[C@@]1(O)C(=O)OCc2c1cc1n(c2=O)Cc2cc3c(CN(C)C)c(O)ccc3nc2-1

$$$$

  SciTegic03142313312D

 43 49  0  0  1  0            999 V2000
    2.5951   -3.0031    0.0000 C   0  0
    2.5973   -1.5031    0.0000 C   0  0
    1.2990   -0.7500    0.0000 C   0  0
    1.2990    0.7500    0.0000 C   0  0
    0.0000    1.5000    0.0000 C   0  0
   -1.2990    0.7500    0.0000 N   0  0
   -1.2990   -0.7500    0.0000 C   0  0
   -2.5981   -1.5000    0.0000 C   0  0
   -2.5981   -3.0000    0.0000 C   0  0
   -1.2990   -3.7500    0.0000 C   0  0
   -1.2959   -5.2508    0.0000 O   0  0
    0.0049   -5.9994    0.0000 C   0  0
    1.3026   -5.2471    0.0000 O   0  0
    0.0080   -7.5002    0.0000 N   0  0
    1.3070   -8.2503    0.0000 C   0  0
    1.3071   -9.7503    0.0000 C   0  0
    0.0081  -10.5003    0.0000 C   0  0
    0.0081  -12.0011    0.0000 N   0  0
    1.3060  -12.7532    0.0000 C   0  0
    1.3036  -14.2532    0.0000 C   0  0
    0.0034  -15.0012    0.0000 C   0  0
   -1.2944  -14.2491    0.0000 C   0  0
   -1.2921  -12.7491    0.0000 C   0  0
   -1.2910   -9.7503    0.0000 C   0  0
   -1.2910   -8.2503    0.0000 C   0  0
    0.0000   -3.0000    0.0000 C   0  0
    0.0000   -1.5000    0.0000 C   0  0
    0.3114    2.9665    0.0000 C   0  0
   -0.5701    4.1788    0.0000 C   0  0
    0.0400    5.5491    0.0000 C   0  0
    1.5318    5.7059    0.0000 C   0  0
    2.4134    4.4924    0.0000 C   0  0
    3.9053    4.6488    0.0000 O   0  0
    1.8032    3.1233    0.0000 N   0  0
    2.4133    1.7530    0.0000 C   0  0
    2.1419    7.0762    0.0000 C   0  0
    1.2602    8.2897    0.0000 O   0  0
   -0.2316    8.1329    0.0000 C   0  0
   -1.1133    9.3465    0.0000 O   0  0
   -0.8417    6.7626    0.0000 C   0  0  1  0  0  0
   -1.6934    7.9974    0.0000 O   0  0
   -1.4104    5.3957    0.0000 C   0  0
   -2.8925    5.1651    0.0000 C   0  0
  1  2  1  0
  2  3  1  0
  3  4  2  0
  4  5  1  0
  5  6  2  0
  6  7  1  0
  7  8  2  0
  8  9  1  0
  9 10  2  0
 10 11  1  0
 11 12  1  0
 12 13  2  0
 12 14  1  0
 14 15  1  0
 15 16  1  0
 16 17  1  0
 17 18  1  0
 18 19  1  0
 19 20  1  0
 20 21  1  0
 21 22  1  0
 22 23  1  0
 23 18  1  0
 17 24  1  0
 24 25  1  0
 25 14  1  0
 10 26  1  0
 26 27  2  0
 27  3  1  0
 27  7  1  0
  5 28  1  0
 28 29  2  0
 29 30  1  0
 30 31  2  0
 31 32  1  0
 32 33  2  0
 32 34  1  0
 34 28  1  0
 34 35  1  0
 35  4  1  0
 31 36  1  0
 36 37  1  0
 37 38  1  0
 38 39  2  0
 38 40  1  0
 40 30  1  0
 40 41  1  6
 40 42  1  0
 42 43  1  0
M  END
> <assay_chembl_id>
CHEMBL1693143

> <assay_description>
Cytotoxicity against human LNCAP cells after 72 hrs by alamar blue assay

> <document_journal>
J Med Chem

> <molecule_chembl_id>
CHEMBL481

> <standard_value>
9

> <IC50_uM>
0.009

> <Activity>
Yes

> <Canonical_Smiles>
CCc1c2c(nc3ccc(OC(=O)N4CCC(N5CCCCC5)CC4)cc13)-c1cc3c(c(=O)n1C2)COC(=O)[C@]3(O)CC

$$$$

  SciTegic03142313312D

 24 26  0  0  0  0            999 V2000
    3.8983   -0.7459    0.0000 C   0  0
    2.6003   -1.4977    0.0000 O   0  0
    1.2990   -0.7500    0.0000 C   0  0
    1.2990    0.7500    0.0000 C   0  0
    0.0000    1.5000    0.0000 C   0  0
    0.0000    3.0008    0.0000 C   0  0
    1.2121    3.8625    0.0000 N   0  0
    0.7463    5.2884    0.0000 N   0  0
   -0.7537    5.2860    0.0000 C   0  0
   -1.6387    6.4949    0.0000 N   0  0
   -3.1309    6.3335    0.0000 C   0  0
   -4.0188    7.5425    0.0000 C   0  0
   -5.5097    7.3781    0.0000 C   0  0
   -6.1129    6.0047    0.0000 C   0  0
   -7.6044    5.8372    0.0000 N   0  3
   -8.2055    4.4630    0.0000 O   0  0
   -8.4943    7.0447    0.0000 O   0  5
   -5.2251    4.7957    0.0000 C   0  0
   -3.7341    4.9600    0.0000 C   0  0
   -1.2149    3.8587    0.0000 S   0  0
   -1.2990    0.7500    0.0000 C   0  0
   -1.2990   -0.7500    0.0000 C   0  0
    0.0000   -1.5000    0.0000 C   0  0
    0.0000   -3.0000    0.0000 O   0  0
  1  2  1  0
  2  3  1  0
  3  4  2  0
  4  5  1  0
  5  6  1  0
  6  7  2  0
  7  8  1  0
  8  9  2  0
  9 10  1  0
 10 11  1  0
 11 12  2  0
 12 13  1  0
 13 14  2  0
 14 15  1  0
 15 16  2  0
 15 17  1  0
 14 18  1  0
 18 19  2  0
 19 11  1  0
  9 20  1  0
 20  6  1  0
  5 21  2  0
 21 22  1  0
 22 23  2  0
 23  3  1  0
 23 24  1  0
M  CHG  2  15   1  17  -1
M  END
> <assay_chembl_id>
CHEMBL1764198

> <assay_description>
Cytotoxicity against human LNCAP cells after 48 hrs by MTT assay

> <document_journal>
Bioorg Med Chem Lett

> <molecule_chembl_id>
CHEMBL1761337

> <standard_value>
62300

> <IC50_uM>
62.3

> <Activity>
No

> <Canonical_Smiles>
COc1cc(-c2nnc(Nc3ccc([N+](=O)[O-])cc3)s2)ccc1O

$$$$

  SciTegic03142313312D

 24 26  0  0  0  0            999 V2000
    3.8983   -0.7459    0.0000 C   0  0
    2.6003   -1.4977    0.0000 O   0  0
    1.2990   -0.7500    0.0000 C   0  0
    1.2990    0.7500    0.0000 C   0  0
    0.0000    1.5000    0.0000 C   0  0
    0.0000    3.0008    0.0000 C   0  0
    1.2121    3.8625    0.0000 N   0  0
    0.7463    5.2884    0.0000 N   0  0
   -0.7537    5.2860    0.0000 C   0  0
   -1.6387    6.4949    0.0000 N   0  0
   -3.1309    6.3335    0.0000 C   0  0
   -4.0188    7.5425    0.0000 C   0  0
   -5.5097    7.3781    0.0000 C   0  0
   -6.1129    6.0047    0.0000 C   0  0
   -5.2251    4.7957    0.0000 C   0  0
   -3.7341    4.9600    0.0000 C   0  0
   -1.2149    3.8587    0.0000 S   0  0
   -1.2990    0.7500    0.0000 C   0  0
   -1.2990   -0.7500    0.0000 C   0  0
   -2.6003   -1.4978    0.0000 O   0  0
   -3.8983   -0.7459    0.0000 C   0  0
    0.0000   -1.5000    0.0000 C   0  0
    0.0031   -3.0008    0.0000 O   0  0
    1.3032   -3.7490    0.0000 C   0  0
  1  2  1  0
  2  3  1  0
  3  4  2  0
  4  5  1  0
  5  6  1  0
  6  7  2  0
  7  8  1  0
  8  9  2  0
  9 10  1  0
 10 11  1  0
 11 12  2  0
 12 13  1  0
 13 14  2  0
 14 15  1  0
 15 16  2  0
 16 11  1  0
  9 17  1  0
 17  6  1  0
  5 18  2  0
 18 19  1  0
 19 20  1  0
 20 21  1  0
 19 22  2  0
 22  3  1  0
 22 23  1  0
 23 24  1  0
M  END
> <assay_chembl_id>
CHEMBL1764198

> <assay_description>
Cytotoxicity against human LNCAP cells after 48 hrs by MTT assay

> <document_journal>
Bioorg Med Chem Lett

> <molecule_chembl_id>
CHEMBL1761340

> <standard_value>
92800

> <IC50_uM>
92.8

> <Activity>
No

> <Canonical_Smiles>
COc1cc(-c2nnc(Nc3ccccc3)s2)cc(OC)c1OC

$$$$

  SciTegic03142313312D

 27 29  0  0  0  0            999 V2000
    3.8983   -0.7459    0.0000 C   0  0
    2.6003   -1.4977    0.0000 O   0  0
    1.2990   -0.7500    0.0000 C   0  0
    1.2990    0.7500    0.0000 C   0  0
    0.0000    1.5000    0.0000 C   0  0
    0.0000    3.0008    0.0000 C   0  0
    1.2121    3.8625    0.0000 N   0  0
    0.7463    5.2884    0.0000 N   0  0
   -0.7537    5.2860    0.0000 C   0  0
   -1.6387    6.4949    0.0000 N   0  0
   -3.1309    6.3335    0.0000 C   0  0
   -4.0188    7.5425    0.0000 C   0  0
   -5.5097    7.3781    0.0000 C   0  0
   -6.1129    6.0047    0.0000 C   0  0
   -7.6044    5.8372    0.0000 N   0  3
   -8.2055    4.4630    0.0000 O   0  0
   -8.4943    7.0447    0.0000 O   0  5
   -5.2251    4.7957    0.0000 C   0  0
   -3.7341    4.9600    0.0000 C   0  0
   -1.2149    3.8587    0.0000 S   0  0
   -1.2990    0.7500    0.0000 C   0  0
   -1.2990   -0.7500    0.0000 C   0  0
   -2.6003   -1.4978    0.0000 O   0  0
   -3.8983   -0.7459    0.0000 C   0  0
    0.0000   -1.5000    0.0000 C   0  0
    0.0031   -3.0008    0.0000 O   0  0
    1.3032   -3.7490    0.0000 C   0  0
  1  2  1  0
  2  3  1  0
  3  4  2  0
  4  5  1  0
  5  6  1  0
  6  7  2  0
  7  8  1  0
  8  9  2  0
  9 10  1  0
 10 11  1  0
 11 12  2  0
 12 13  1  0
 13 14  2  0
 14 15  1  0
 15 16  2  0
 15 17  1  0
 14 18  1  0
 18 19  2  0
 19 11  1  0
  9 20  1  0
 20  6  1  0
  5 21  2  0
 21 22  1  0
 22 23  1  0
 23 24  1  0
 22 25  2  0
 25  3  1  0
 25 26  1  0
 26 27  1  0
M  CHG  2  15   1  17  -1
M  END
> <assay_chembl_id>
CHEMBL1764198

> <assay_description>
Cytotoxicity against human LNCAP cells after 48 hrs by MTT assay

> <document_journal>
Bioorg Med Chem Lett

> <molecule_chembl_id>
CHEMBL1761341

> <standard_value>
66500

> <IC50_uM>
66.5

> <Activity>
No

> <Canonical_Smiles>
COc1cc(-c2nnc(Nc3ccc([N+](=O)[O-])cc3)s2)cc(OC)c1OC

$$$$

  SciTegic03142313312D

 26 28  0  0  0  0            999 V2000
    2.5951   -3.0031    0.0000 C   0  0
    2.5973   -1.5031    0.0000 O   0  0
    1.2990   -0.7500    0.0000 C   0  0
    1.2990    0.7500    0.0000 C   0  0
    0.0000    1.5000    0.0000 C   0  0
   -1.2990    0.7500    0.0000 C   0  0
   -2.6003    1.4977    0.0000 N   0  0
   -3.8990    0.7455    0.0000 C   0  0
   -5.2526    1.3618    0.0000 N   0  0
   -6.2524    0.2436    0.0000 N   0  0
   -5.4979   -1.0529    0.0000 C   0  0
   -6.1035   -2.4260    0.0000 C   0  0
   -7.5736   -2.6979    0.0000 C   0  0
   -8.0739   -4.1120    0.0000 C   0  0
   -9.5501   -4.3829    0.0000 O   0  0
  -10.5230   -3.2411    0.0000 C   0  0
   -7.0995   -5.2524    0.0000 C   0  0
   -7.5972   -6.6683    0.0000 O   0  0
   -6.6211   -7.8072    0.0000 C   0  0
   -5.6247   -4.9786    0.0000 C   0  0
   -4.6473   -6.1176    0.0000 O   0  0
   -3.1729   -5.8418    0.0000 C   0  0
   -5.1243   -3.5646    0.0000 C   0  0
   -4.0317   -0.7359    0.0000 S   0  0
   -1.2990   -0.7500    0.0000 C   0  0
    0.0000   -1.5000    0.0000 C   0  0
  1  2  1  0
  2  3  1  0
  3  4  2  0
  4  5  1  0
  5  6  2  0
  6  7  1  0
  7  8  1  0
  8  9  2  0
  9 10  1  0
 10 11  2  0
 11 12  1  0
 12 13  2  0
 13 14  1  0
 14 15  1  0
 15 16  1  0
 14 17  2  0
 17 18  1  0
 18 19  1  0
 17 20  1  0
 20 21  1  0
 21 22  1  0
 20 23  2  0
 23 12  1  0
 11 24  1  0
 24  8  1  0
  6 25  1  0
 25 26  2  0
 26  3  1  0
M  END
> <assay_chembl_id>
CHEMBL1764198

> <assay_description>
Cytotoxicity against human LNCAP cells after 48 hrs by MTT assay

> <document_journal>
Bioorg Med Chem Lett

> <molecule_chembl_id>
CHEMBL1761343

> <standard_value>
29500

> <IC50_uM>
29.5

> <Activity>
No

> <Canonical_Smiles>
COc1ccc(Nc2nnc(-c3cc(OC)c(OC)c(OC)c3)s2)cc1

$$$$

  SciTegic03142313312D

 20 22  0  0  0  0            999 V2000
    3.8964    0.7545    0.0000 O   0  0
    3.8990   -0.7455    0.0000 C   0  0
    2.6003   -1.4977    0.0000 N   0  0
    1.2990   -0.7500    0.0000 C   0  0
    1.2990    0.7500    0.0000 C   0  0
    0.0000    1.5000    0.0000 C   0  0
   -1.2990    0.7500    0.0000 C   0  0
   -1.2990   -0.7500    0.0000 C   0  0
   -2.5981   -1.5000    0.0000 C   0  0
   -3.8971   -0.7500    0.0000 O   0  0
   -2.5981   -3.0000    0.0000 N   0  0
   -1.2990   -3.7500    0.0000 C   0  0
    0.0000   -3.0000    0.0000 C   0  0
    0.0000   -1.5000    0.0000 C   0  0
    5.2003   -1.4932    0.0000 C   0  0
    6.4994   -0.7432    0.0000 C   0  0
    7.7985   -1.4932    0.0000 C   0  0
    7.7985   -2.9932    0.0000 C   0  0
    6.4995   -3.7432    0.0000 C   0  0
    5.2004   -2.9933    0.0000 C   0  0
  1  2  2  0
  2  3  1  0
  3  4  1  0
  4  5  2  0
  5  6  1  0
  6  7  2  0
  7  8  1  0
  8  9  1  0
  9 10  2  0
  9 11  1  0
 11 12  1  0
 12 13  2  0
 13 14  1  0
 14  4  1  0
 14  8  2  0
  2 15  1  0
 15 16  2  0
 16 17  1  0
 17 18  2  0
 18 19  1  0
 19 20  2  0
 20 15  1  0
M  END
> <assay_chembl_id>
CHEMBL1767649

> <assay_description>
Growth inhibition of human LNCAP cells after 7 days by MTS assay

> <document_journal>
J Med Chem

> <molecule_chembl_id>
CHEMBL1767054

> <standard_value>
98000

> <IC50_uM>
98

> <Activity>
No

> <Canonical_Smiles>
O=C(Nc1cccc2c(=O)[nH]ccc12)c1ccccc1

$$$$

  SciTegic03142313312D

 24 28  0  0  0  0            999 V2000
    3.8964    0.7545    0.0000 O   0  0
    3.8990   -0.7455    0.0000 C   0  0
    2.6003   -1.4977    0.0000 N   0  0
    1.2990   -0.7500    0.0000 C   0  0
    1.2990    0.7500    0.0000 C   0  0
    0.0000    1.5000    0.0000 C   0  0
   -1.2990    0.7500    0.0000 C   0  0
   -1.2990   -0.7500    0.0000 C   0  0
   -2.5981   -1.5000    0.0000 C   0  0
   -3.8971   -0.7500    0.0000 O   0  0
   -2.5981   -3.0000    0.0000 N   0  0
   -1.2990   -3.7500    0.0000 C   0  0
    0.0000   -3.0000    0.0000 C   0  0
    0.0000   -1.5000    0.0000 C   0  0
    5.2003   -1.4932    0.0000 C   0  0  3  0  0  0
    3.5516   -2.1215    0.0000 C   0  0
    4.4365   -0.9053    0.0000 C   0  0  3  0  0  0
    5.8797   -1.4442    0.0000 C   0  0
    7.3666   -0.9227    0.0000 C   0  0  3  0  0  0
    7.3152    0.5649    0.0000 C   0  0
    5.9170    1.0674    0.0000 C   0  0  3  0  0  0
    4.4022    0.5758    0.0000 C   0  0
    5.1266   -0.1058    0.0000 C   0  0
    6.4815   -1.9822    0.0000 C   0  0
  1  2  2  0
  2  3  1  0
  3  4  1  0
  4  5  2  0
  5  6  1  0
  6  7  2  0
  7  8  1  0
  8  9  1  0
  9 10  2  0
  9 11  1  0
 11 12  1  0
 12 13  2  0
 13 14  1  0
 14  4  1  0
 14  8  2  0
 15  2  1  4
 15 16  1  0
 17 16  1  4
 17 18  1  0
 19 18  1  4
 19 20  1  0
 21 20  1  4
 21 22  1  0
 22 17  1  0
 21 23  1  0
 23 15  1  0
 19 24  1  0
 24 15  1  0
M  END
> <assay_chembl_id>
CHEMBL1767649

> <assay_description>
Growth inhibition of human LNCAP cells after 7 days by MTS assay

> <document_journal>
J Med Chem

> <molecule_chembl_id>
CHEMBL1765110

> <standard_value>
42000

> <IC50_uM>
42

> <Activity>
No

> <Canonical_Smiles>
O=C(Nc1cccc2c(=O)[nH]ccc12)C12CC3CC(CC(C3)C1)C2

$$$$

  SciTegic03142313312D

 35 38  0  0  0  0            999 V2000
    1.2963   -3.7484    0.0000 C   0  0
    2.5965   -3.0004    0.0000 C   0  0
    3.8943   -3.7525    0.0000 C   0  0
    5.1945   -3.0045    0.0000 C   0  0
    6.4924   -3.7566    0.0000 Cl  0  0
    5.1969   -1.5045    0.0000 C   0  0
    3.8991   -0.7525    0.0000 C   0  0
    3.9046    0.7483    0.0000 O   0  0
    5.2066    1.4948    0.0000 C   0  0
    5.2121    2.9956    0.0000 C   0  0
    6.5142    3.7420    0.0000 N   0  0
    6.6596    5.2222    0.0000 C   0  0
    8.1284    5.5265    0.0000 C   0  0
    8.7455    6.8937    0.0000 F   0  0
    8.8718    4.2237    0.0000 C   0  0
    7.8624    3.1141    0.0000 N   0  0
    2.5987   -1.5004    0.0000 C   0  0
    1.2990   -0.7500    0.0000 C   0  0
    1.2990    0.7500    0.0000 N   0  0
    0.0000    1.5000    0.0000 C   0  0
    0.0000    3.0000    0.0000 N   0  0
   -1.2990    0.7500    0.0000 N   0  0
   -1.2990   -0.7500    0.0000 C   0  0
    0.0000   -1.5000    0.0000 C   0  0
   -0.3114   -2.9665    0.0000 C   0  0
   -1.8032   -3.1233    0.0000 N   0  0
   -2.5550   -4.4193    0.0000 C   0  0
   -1.8073   -5.7196    0.0000 O   0  0
   -4.0559   -4.4171    0.0000 N   0  0
   -4.8090   -5.7153    0.0000 C   0  0
   -6.3098   -5.7131    0.0000 C   0  0
   -7.8098   -5.7103    0.0000 C   0  0
   -7.0625   -7.0106    0.0000 F   0  0
   -7.0575   -4.4128    0.0000 F   0  0
   -2.4133   -1.7530    0.0000 C   0  0
  1  2  1  0
  2  3  2  0
  3  4  1  0
  4  5  1  0
  4  6  2  0
  6  7  1  0
  7  8  1  0
  8  9  1  0
  9 10  1  0
 10 11  1  0
 11 12  1  0
 12 13  2  0
 13 14  1  0
 13 15  1  0
 15 16  2  0
 16 11  1  0
  7 17  2  0
 17  2  1  4
 17 18  1  0
 18 19  2  0
 19 20  1  0
 20 21  1  0
 20 22  2  0
 22 23  1  0
 23 24  2  0
 24 18  1  0
 24 25  1  0
 25 26  1  0
 26 27  1  0
 27 28  2  0
 27 29  1  0
 29 30  1  0
 30 31  1  0
 31 32  1  0
 31 33  1  0
 31 34  1  0
 26 35  1  0
 35 23  1  0
M  END
> <assay_chembl_id>
CHEMBL1777429

> <assay_description>
Antiproliferative activity against human LNCAP cells

> <document_journal>
J Med Chem

> <molecule_chembl_id>
CHEMBL1774933

> <standard_value>
30

> <IC50_uM>
0.03

> <Activity>
Yes

> <Canonical_Smiles>
Cc1cc(Cl)cc(OCCn2cc(F)cn2)c1-c1nc(N)nc2c1CN(C(=O)NCC(C)(F)F)C2

$$$$

  SciTegic03142313312D

 73 76  0  0  1  0            999 V2000
   -6.3526   -0.4242    0.0000 C   0  0
   -5.1674   -1.3437    0.0000 O   0  0
   -5.3700   -2.8300    0.0000 C   0  0  1  0  0  0
   -6.8600   -3.4400    0.0000 C   0  0
   -7.8600   -2.2400    0.0000 C   0  0  2  0  0  0
   -9.2500   -2.5000    0.0000 C   0  0
  -10.1800   -1.4400    0.0000 C   0  0
   -9.7100    0.0100    0.0000 C   0  0  1  0  0  0
  -10.7377    1.1027    0.0000 C   0  0
   -8.0800    0.4300    0.0000 C   0  0  1  0  0  0
   -8.4778    1.8763    0.0000 O   0  0
   -7.2300   -0.9300    0.0000 O   0  0
   -6.6100    0.8600    0.0000 C   0  0
   -5.5855   -0.2356    0.0000 O   0  0
   -6.1000    2.2500    0.0000 C   0  0
   -7.0129    3.4402    0.0000 O   0  0
   -4.5400    2.3900    0.0000 N   0  0
   -5.4800    3.8300    0.0000 C   0  0
   -4.8400    5.2900    0.0000 C   0  0
   -3.4600    5.5000    0.0000 C   0  0
   -2.6400    4.4900    0.0000 C   0  0
   -3.1200    3.1200    0.0000 C   0  0  1  0  0  0
   -1.9000    2.2900    0.0000 C   0  0
   -1.8545    0.7907    0.0000 O   0  0
   -0.7100    3.2100    0.0000 O   0  0
    0.6400    2.7300    0.0000 C   0  0  2  0  0  0
    1.7942    3.6872    0.0000 C   0  0  2  0  0  0
    3.2010    3.1666    0.0000 C   0  0
    1.5420    5.1667    0.0000 C   0  0
    2.6966    6.1256    0.0000 C   0  0  2  0  0  0
    2.4467    7.6047    0.0000 C   0  0
    3.6025    8.5607    0.0000 C   0  0
    5.0084    8.0377    0.0000 C   0  0  1  0  0  0
    6.1630    8.9966    0.0000 O   0  0
    5.9107   10.4760    0.0000 C   0  0
    4.5039   10.9966    0.0000 O   0  0
    7.0653   11.4350    0.0000 C   0  0
    8.2196   12.3928    0.0000 C   0  0
    6.8130   12.9144    0.0000 C   0  0
    7.9669   13.8728    0.0000 O   0  0
    8.4727   10.9141    0.0000 C   0  0
    9.6276   11.8714    0.0000 O   0  0
    5.2584    6.5586    0.0000 C   0  0  2  0  0  0
    6.6661    6.0382    0.0000 O   0  0
    7.8206    6.9959    0.0000 C   0  0
    4.1025    5.6026    0.0000 C   0  0
    0.8000    1.1200    0.0000 C   0  0
    2.0600    0.3500    0.0000 C   0  0
    1.8870   -1.1400    0.0000 O   0  0
    3.4300    0.8000    0.0000 C   0  0  2  0  0  0
    3.8662    2.2352    0.0000 C   0  0
    4.3600   -0.3900    0.0000 C   0  0
    5.8000   -0.4000    0.0000 C   0  0
    6.6151    0.8592    0.0000 C   0  0
    6.4400   -1.8000    0.0000 C   0  0  1  0  0  0
    7.9345   -1.9281    0.0000 O   0  0
    5.5100   -3.1600    0.0000 C   0  0  1  0  0  0
    4.0182   -3.2790    0.0000 O   0  0
    3.1659   -2.0447    0.0000 C   0  0
    6.5100   -4.2800    0.0000 C   0  0
    7.9504   -3.8613    0.0000 O   0  0
    6.2500   -5.8600    0.0000 C   0  0  2  0  0  0
    7.5042   -6.6827    0.0000 C   0  0
    4.8700   -6.7500    0.0000 C   0  0
    3.3400   -6.2300    0.0000 C   0  0  2  0  0  0
    2.3025   -7.3134    0.0000 C   0  0
    2.7800   -4.7900    0.0000 C   0  0
    1.1200   -4.8600    0.0000 C   0  0
    0.1200   -3.6900    0.0000 C   0  0
   -1.4100   -4.1500    0.0000 C   0  0
   -2.6300   -3.1700    0.0000 C   0  0
   -4.1200   -3.7800    0.0000 C   0  0
   -4.3154   -5.2672    0.0000 C   0  0
  1  2  1  0
  3  2  1  6
  3  4  1  0
  5  4  1  6
  5  6  1  0
  6  7  1  0
  7  8  1  0
  8  9  1  1
  8 10  1  0
 10 11  1  1
 10 12  1  0
 12  5  1  0
 10 13  1  0
 13 14  2  0
 13 15  1  0
 15 16  2  0
 15 17  1  0
 17 18  1  0
 18 19  1  0
 19 20  1  0
 20 21  1  0
 22 21  1  1
 22 17  1  0
 22 23  1  0
 23 24  2  0
 23 25  1  0
 26 25  1  6
 26 27  1  0
 27 28  1  1
 27 29  1  0
 30 29  1  6
 30 31  1  0
 31 32  1  0
 32 33  1  0
 33 34  1  1
 34 35  1  0
 35 36  2  0
 35 37  1  0
 37 38  1  0
 37 39  1  0
 39 40  1  0
 37 41  1  0
 41 42  1  0
 33 43  1  0
 43 44  1  6
 44 45  1  0
 43 46  1  0
 46 30  1  0
 26 47  1  0
 47 48  1  0
 48 49  2  0
 48 50  1  0
 50 51  1  6
 50 52  1  0
 52 53  2  0
 53 54  1  0
 53 55  1  0
 55 56  1  1
 55 57  1  0
 57 58  1  6
 58 59  1  0
 57 60  1  0
 60 61  2  0
 60 62  1  0
 62 63  1  6
 62 64  1  0
 64 65  1  0
 65 66  1  6
 65 67  1  0
 67 68  2  0
 68 69  1  0
 69 70  2  0
 70 71  1  0
 71 72  2  0
 72  3  1  0
 72 73  1  0
M  END
> <assay_chembl_id>
CHEMBL1777506

> <assay_description>
Antiproliferative activity against human LNCAP cells after 3 days by MTS assay

> <document_journal>
J Nat Prod

> <molecule_chembl_id>
CHEMBL1201182

> <standard_value>
0.5

> <IC50_uM>
0.0005

> <Activity>
Yes

> <Canonical_Smiles>
CO[C@H]1C[C@@H]2CC[C@@H](C)[C@@](O)(O2)C(=O)C(=O)N2CCCC[C@H]2C(=O)O[C@H]([C@H](C)C[C@@H]2CC[C@@H](OC(=O)C(C)(CO)CO)[C@H](OC)C2)CC(=O)[C@H](C)/C=C(\C)[C@@H](O)[C@@H](OC)C(=O)[C@H](C)C[C@H](C)/C=C/C=C/C
=C/1C

$$$$

  SciTegic03142313312D

 74 77  0  0  1  0            999 V2000
    5.3125    2.5902    0.0000 C   0  0
    3.8545    2.2375    0.0000 C   0  0
    3.4300    0.8000    0.0000 C   0  0  2  0  0  0
    4.3600   -0.3900    0.0000 C   0  0
    5.8000   -0.4000    0.0000 C   0  0
    6.6151    0.8592    0.0000 C   0  0
    6.4400   -1.8000    0.0000 C   0  0  1  0  0  0
    7.9345   -1.9281    0.0000 O   0  0
    5.5100   -3.1600    0.0000 C   0  0  1  0  0  0
    4.0182   -3.2790    0.0000 O   0  0
    3.1659   -2.0447    0.0000 C   0  0
    6.5100   -4.2800    0.0000 C   0  0
    7.9504   -3.8613    0.0000 O   0  0
    6.2500   -5.8600    0.0000 C   0  0  2  0  0  0
    7.5042   -6.6827    0.0000 C   0  0
    4.8700   -6.7500    0.0000 C   0  0
    3.3400   -6.2300    0.0000 C   0  0  2  0  0  0
    2.3025   -7.3134    0.0000 C   0  0
    2.7800   -4.7900    0.0000 C   0  0
    1.1200   -4.8600    0.0000 C   0  0
    0.1200   -3.6900    0.0000 C   0  0
   -1.4100   -4.1500    0.0000 C   0  0
   -2.6300   -3.1700    0.0000 C   0  0
   -4.1200   -3.7800    0.0000 C   0  0
   -4.3154   -5.2672    0.0000 C   0  0
   -5.3700   -2.8300    0.0000 C   0  0  1  0  0  0
   -5.1613   -1.3445    0.0000 O   0  0
   -3.7708   -0.7819    0.0000 C   0  0
   -6.8600   -3.4400    0.0000 C   0  0
   -7.8600   -2.2400    0.0000 C   0  0  2  0  0  0
   -9.2500   -2.5000    0.0000 C   0  0
  -10.1800   -1.4400    0.0000 C   0  0
   -9.7100    0.0100    0.0000 C   0  0  1  0  0  0
  -10.7377    1.1027    0.0000 C   0  0
   -8.0800    0.4300    0.0000 C   0  0  1  0  0  0
   -8.4778    1.8763    0.0000 O   0  0
   -7.2300   -0.9300    0.0000 O   0  0
   -6.6100    0.8600    0.0000 C   0  0
   -5.5855   -0.2356    0.0000 O   0  0
   -6.1000    2.2500    0.0000 C   0  0
   -7.0129    3.4402    0.0000 O   0  0
   -4.5400    2.3900    0.0000 N   0  0
   -5.4800    3.8300    0.0000 C   0  0
   -4.8400    5.2900    0.0000 C   0  0
   -3.4600    5.5000    0.0000 C   0  0
   -2.6400    4.4900    0.0000 C   0  0
   -3.1200    3.1200    0.0000 C   0  0  1  0  0  0
   -1.9000    2.2900    0.0000 C   0  0
   -1.8545    0.7907    0.0000 O   0  0
   -0.7100    3.2100    0.0000 O   0  0
    0.6400    2.7300    0.0000 C   0  0  2  0  0  0
    1.7942    3.6872    0.0000 C   0  0  2  0  0  0
    3.2010    3.1666    0.0000 C   0  0
    1.5420    5.1667    0.0000 C   0  0
    2.6966    6.1256    0.0000 C   0  0  2  0  0  0
    2.4467    7.6047    0.0000 C   0  0
    3.6025    8.5607    0.0000 C   0  0
    5.0084    8.0377    0.0000 C   0  0  1  0  0  0
    6.1630    8.9966    0.0000 O   0  0
    5.9107   10.4760    0.0000 C   0  0
    4.5039   10.9966    0.0000 O   0  0
    7.0653   11.4350    0.0000 C   0  0
    8.2196   12.3928    0.0000 C   0  0
    6.8130   12.9144    0.0000 C   0  0
    7.9669   13.8728    0.0000 O   0  0
    8.4727   10.9141    0.0000 C   0  0
    9.6276   11.8714    0.0000 O   0  0
    5.2584    6.5586    0.0000 C   0  0  2  0  0  0
    6.6661    6.0382    0.0000 O   0  0
    7.8206    6.9959    0.0000 C   0  0
    4.1025    5.6026    0.0000 C   0  0
    0.8000    1.1200    0.0000 C   0  0
    2.0600    0.3500    0.0000 C   0  0
    1.8870   -1.1400    0.0000 O   0  0
  1  2  1  0
  3  2  1  6
  3  4  1  0
  4  5  2  0
  5  6  1  0
  5  7  1  0
  7  8  1  1
  7  9  1  0
  9 10  1  6
 10 11  1  0
  9 12  1  0
 12 13  2  0
 12 14  1  0
 14 15  1  6
 14 16  1  0
 16 17  1  0
 17 18  1  6
 17 19  1  0
 19 20  2  0
 20 21  1  0
 21 22  2  0
 22 23  1  0
 23 24  2  0
 24 25  1  0
 24 26  1  0
 26 27  1  6
 27 28  1  0
 26 29  1  0
 30 29  1  6
 30 31  1  0
 31 32  1  0
 32 33  1  0
 33 34  1  1
 33 35  1  0
 35 36  1  1
 35 37  1  0
 37 30  1  0
 35 38  1  0
 38 39  2  0
 38 40  1  0
 40 41  2  0
 40 42  1  0
 42 43  1  0
 43 44  1  0
 44 45  1  0
 45 46  1  0
 47 46  1  1
 47 42  1  0
 47 48  1  0
 48 49  2  0
 48 50  1  0
 51 50  1  6
 51 52  1  0
 52 53  1  1
 52 54  1  0
 55 54  1  6
 55 56  1  0
 56 57  1  0
 57 58  1  0
 58 59  1  1
 59 60  1  0
 60 61  2  0
 60 62  1  0
 62 63  1  0
 62 64  1  0
 64 65  1  0
 62 66  1  0
 66 67  1  0
 58 68  1  0
 68 69  1  6
 69 70  1  0
 68 71  1  0
 71 55  1  0
 51 72  1  0
 72 73  1  0
 73  3  1  0
 73 74  2  0
M  END
> <assay_chembl_id>
CHEMBL1777506

> <assay_description>
Antiproliferative activity against human LNCAP cells after 3 days by MTS assay

> <document_journal>
J Nat Prod

> <molecule_chembl_id>
CHEMBL1774942

> <standard_value>
8

> <IC50_uM>
0.008

> <Activity>
Yes

> <Canonical_Smiles>
CC[C@@H]1/C=C(\C)[C@@H](O)[C@@H](OC)C(=O)[C@H](C)C[C@H](C)/C=C/C=C/C=C(\C)[C@@H](OC)C[C@@H]2CC[C@@H](C)[C@@](O)(O2)C(=O)C(=O)N2CCCC[C@H]2C(=O)O[C@H]([C@H](C)C[C@@H]2CC[C@@H](OC(=O)C(C)(CO)CO)[C@H](OC)
C2)CC1=O

$$$$

  SciTegic03142313312D

 74 77  0  0  1  0            999 V2000
    2.6868   -8.7475    0.0000 C   0  0
    2.2871   -7.3018    0.0000 C   0  0
    3.3400   -6.2300    0.0000 C   0  0  2  0  0  0
    2.7800   -4.7900    0.0000 C   0  0
    1.1200   -4.8600    0.0000 C   0  0
    0.1200   -3.6900    0.0000 C   0  0
   -1.4100   -4.1500    0.0000 C   0  0
   -2.6300   -3.1700    0.0000 C   0  0
   -4.1200   -3.7800    0.0000 C   0  0
   -4.3154   -5.2672    0.0000 C   0  0
   -5.3700   -2.8300    0.0000 C   0  0  1  0  0  0
   -5.1613   -1.3445    0.0000 O   0  0
   -3.7708   -0.7819    0.0000 C   0  0
   -6.8600   -3.4400    0.0000 C   0  0
   -7.8600   -2.2400    0.0000 C   0  0  2  0  0  0
   -9.2500   -2.5000    0.0000 C   0  0
  -10.1800   -1.4400    0.0000 C   0  0
   -9.7100    0.0100    0.0000 C   0  0  1  0  0  0
  -10.7377    1.1027    0.0000 C   0  0
   -8.0800    0.4300    0.0000 C   0  0  1  0  0  0
   -8.4778    1.8763    0.0000 O   0  0
   -7.2300   -0.9300    0.0000 O   0  0
   -6.6100    0.8600    0.0000 C   0  0
   -5.5855   -0.2356    0.0000 O   0  0
   -6.1000    2.2500    0.0000 C   0  0
   -7.0129    3.4402    0.0000 O   0  0
   -4.5400    2.3900    0.0000 N   0  0
   -5.4800    3.8300    0.0000 C   0  0
   -4.8400    5.2900    0.0000 C   0  0
   -3.4600    5.5000    0.0000 C   0  0
   -2.6400    4.4900    0.0000 C   0  0
   -3.1200    3.1200    0.0000 C   0  0  1  0  0  0
   -1.9000    2.2900    0.0000 C   0  0
   -1.8545    0.7907    0.0000 O   0  0
   -0.7100    3.2100    0.0000 O   0  0
    0.6400    2.7300    0.0000 C   0  0  2  0  0  0
    1.7942    3.6872    0.0000 C   0  0  2  0  0  0
    3.2010    3.1666    0.0000 C   0  0
    1.5420    5.1667    0.0000 C   0  0
    2.6966    6.1256    0.0000 C   0  0  2  0  0  0
    2.4467    7.6047    0.0000 C   0  0
    3.6025    8.5607    0.0000 C   0  0
    5.0084    8.0377    0.0000 C   0  0  1  0  0  0
    6.1630    8.9966    0.0000 O   0  0
    5.9107   10.4760    0.0000 C   0  0
    4.5039   10.9966    0.0000 O   0  0
    7.0653   11.4350    0.0000 C   0  0
    8.2196   12.3928    0.0000 C   0  0
    6.8130   12.9144    0.0000 C   0  0
    7.9669   13.8728    0.0000 O   0  0
    8.4727   10.9141    0.0000 C   0  0
    9.6276   11.8714    0.0000 O   0  0
    5.2584    6.5586    0.0000 C   0  0  2  0  0  0
    6.6661    6.0382    0.0000 O   0  0
    7.8206    6.9959    0.0000 C   0  0
    4.1025    5.6026    0.0000 C   0  0
    0.8000    1.1200    0.0000 C   0  0
    2.0600    0.3500    0.0000 C   0  0
    1.8870   -1.1400    0.0000 O   0  0
    3.4300    0.8000    0.0000 C   0  0  2  0  0  0
    3.8662    2.2352    0.0000 C   0  0
    4.3600   -0.3900    0.0000 C   0  0
    5.8000   -0.4000    0.0000 C   0  0
    6.6151    0.8592    0.0000 C   0  0
    6.4400   -1.8000    0.0000 C   0  0  1  0  0  0
    7.9345   -1.9281    0.0000 O   0  0
    5.5100   -3.1600    0.0000 C   0  0  1  0  0  0
    4.0182   -3.2790    0.0000 O   0  0
    3.1659   -2.0447    0.0000 C   0  0
    6.5100   -4.2800    0.0000 C   0  0
    7.9504   -3.8613    0.0000 O   0  0
    6.2500   -5.8600    0.0000 C   0  0  2  0  0  0
    7.5042   -6.6827    0.0000 C   0  0
    4.8700   -6.7500    0.0000 C   0  0
  1  2  1  0
  3  2  1  6
  3  4  1  0
  4  5  2  0
  5  6  1  0
  6  7  2  0
  7  8  1  0
  8  9  2  0
  9 10  1  0
  9 11  1  0
 11 12  1  6
 12 13  1  0
 11 14  1  0
 15 14  1  6
 15 16  1  0
 16 17  1  0
 17 18  1  0
 18 19  1  1
 18 20  1  0
 20 21  1  1
 20 22  1  0
 22 15  1  0
 20 23  1  0
 23 24  2  0
 23 25  1  0
 25 26  2  0
 25 27  1  0
 27 28  1  0
 28 29  1  0
 29 30  1  0
 30 31  1  0
 32 31  1  1
 32 27  1  0
 32 33  1  0
 33 34  2  0
 33 35  1  0
 36 35  1  6
 36 37  1  0
 37 38  1  1
 37 39  1  0
 40 39  1  6
 40 41  1  0
 41 42  1  0
 42 43  1  0
 43 44  1  1
 44 45  1  0
 45 46  2  0
 45 47  1  0
 47 48  1  0
 47 49  1  0
 49 50  1  0
 47 51  1  0
 51 52  1  0
 43 53  1  0
 53 54  1  6
 54 55  1  0
 53 56  1  0
 56 40  1  0
 36 57  1  0
 57 58  1  0
 58 59  2  0
 58 60  1  0
 60 61  1  6
 60 62  1  0
 62 63  2  0
 63 64  1  0
 63 65  1  0
 65 66  1  1
 65 67  1  0
 67 68  1  6
 68 69  1  0
 67 70  1  0
 70 71  2  0
 70 72  1  0
 72 73  1  6
 72 74  1  0
 74  3  1  0
M  END
> <assay_chembl_id>
CHEMBL1777506

> <assay_description>
Antiproliferative activity against human LNCAP cells after 3 days by MTS assay

> <document_journal>
J Nat Prod

> <molecule_chembl_id>
CHEMBL1774941

> <standard_value>
13

> <IC50_uM>
0.013

> <Activity>
Yes

> <Canonical_Smiles>
CC[C@@H]1/C=C/C=C/C=C(\C)[C@@H](OC)C[C@@H]2CC[C@@H](C)[C@@](O)(O2)C(=O)C(=O)N2CCCC[C@H]2C(=O)O[C@H]([C@H](C)C[C@@H]2CC[C@@H](OC(=O)C(C)(CO)CO)[C@H](OC)C2)CC(=O)[C@H](C)/C=C(\C)[C@@H](O)[C@@H](OC)C(=O)
[C@H](C)C1

$$$$

  SciTegic03142313312D

 74 77  0  0  1  0            999 V2000
  -12.2195    0.6839    0.0000 C   0  0
  -10.7704    1.0714    0.0000 C   0  0
   -9.7100    0.0100    0.0000 C   0  0  2  0  0  0
  -10.1800   -1.4400    0.0000 C   0  0
   -9.2500   -2.5000    0.0000 C   0  0
   -7.8600   -2.2400    0.0000 C   0  0  1  0  0  0
   -6.8600   -3.4400    0.0000 C   0  0
   -5.3700   -2.8300    0.0000 C   0  0  2  0  0  0
   -5.1674   -1.3437    0.0000 O   0  0
   -6.3526   -0.4242    0.0000 C   0  0
   -4.1200   -3.7800    0.0000 C   0  0
   -4.3154   -5.2672    0.0000 C   0  0
   -2.6300   -3.1700    0.0000 C   0  0
   -1.4100   -4.1500    0.0000 C   0  0
    0.1200   -3.6900    0.0000 C   0  0
    1.1200   -4.8600    0.0000 C   0  0
    2.7800   -4.7900    0.0000 C   0  0
    3.3400   -6.2300    0.0000 C   0  0  1  0  0  0
    2.3025   -7.3134    0.0000 C   0  0
    4.8700   -6.7500    0.0000 C   0  0
    6.2500   -5.8600    0.0000 C   0  0  1  0  0  0
    7.5042   -6.6827    0.0000 C   0  0
    6.5100   -4.2800    0.0000 C   0  0
    7.9504   -3.8613    0.0000 O   0  0
    5.5100   -3.1600    0.0000 C   0  0  2  0  0  0
    4.0188   -3.2852    0.0000 O   0  0
    3.3799   -4.6424    0.0000 C   0  0
    6.4400   -1.8000    0.0000 C   0  0  2  0  0  0
    7.9345   -1.9281    0.0000 O   0  0
    5.8000   -0.4000    0.0000 C   0  0
    6.6151    0.8592    0.0000 C   0  0
    4.3600   -0.3900    0.0000 C   0  0
    3.4300    0.8000    0.0000 C   0  0  1  0  0  0
    3.8662    2.2352    0.0000 C   0  0
    2.0600    0.3500    0.0000 C   0  0
    1.8870   -1.1400    0.0000 O   0  0
    0.8000    1.1200    0.0000 C   0  0
    0.6400    2.7300    0.0000 C   0  0  1  0  0  0
    1.7916    3.6903    0.0000 C   0  0  2  0  0  0
    1.5342    5.1681    0.0000 C   0  0
    3.2010    3.1746    0.0000 C   0  0
    4.3530    4.1366    0.0000 C   0  0  2  0  0  0
    5.7625    3.6231    0.0000 C   0  0
    6.9118    4.5869    0.0000 C   0  0
    6.6519    6.0642    0.0000 C   0  0  1  0  0  0
    7.8039    7.0262    0.0000 O   0  0
    9.2133    6.5104    0.0000 C   0  0
    9.4707    5.0327    0.0000 O   0  0
   10.3653    7.4724    0.0000 C   0  0
   11.5162    8.4344    0.0000 C   0  0
   11.7747    6.9566    0.0000 C   0  0
   12.9260    7.9180    0.0000 O   0  0
   10.1077    8.9509    0.0000 C   0  0
   11.2582    9.9134    0.0000 O   0  0
    5.2425    6.5777    0.0000 C   0  0  2  0  0  0
    4.9854    8.0564    0.0000 O   0  0
    6.1362    9.0186    0.0000 C   0  0
    4.0931    5.6139    0.0000 C   0  0
   -0.7100    3.2100    0.0000 O   0  0
   -1.9000    2.2900    0.0000 C   0  0
   -1.8545    0.7907    0.0000 O   0  0
   -3.1200    3.1200    0.0000 C   0  0  2  0  0  0
   -2.6400    4.4900    0.0000 C   0  0
   -3.4600    5.5000    0.0000 C   0  0
   -4.8400    5.2900    0.0000 C   0  0
   -5.4800    3.8300    0.0000 C   0  0
   -4.5400    2.3900    0.0000 N   0  0
   -6.1000    2.2500    0.0000 C   0  0
   -7.0129    3.4402    0.0000 O   0  0
   -6.6100    0.8600    0.0000 C   0  0
   -5.5855   -0.2356    0.0000 O   0  0
   -8.0800    0.4300    0.0000 C   0  0  1  0  0  0
   -8.4778    1.8763    0.0000 O   0  0
   -7.2300   -0.9300    0.0000 O   0  0
  1  2  1  0
  3  2  1  1
  3  4  1  0
  4  5  1  0
  6  5  1  6
  6  7  1  0
  7  8  1  0
  8  9  1  6
  9 10  1  0
  8 11  1  0
 11 12  1  0
 11 13  2  0
 13 14  1  0
 14 15  2  0
 15 16  1  0
 16 17  2  0
 17 18  1  0
 18 19  1  6
 18 20  1  0
 20 21  1  0
 21 22  1  6
 21 23  1  0
 23 24  2  0
 23 25  1  0
 25 26  1  6
 26 27  1  0
 25 28  1  0
 28 29  1  1
 28 30  1  0
 30 31  1  0
 30 32  2  0
 32 33  1  0
 33 34  1  6
 33 35  1  0
 35 36  2  0
 35 37  1  0
 38 37  1  6
 38 39  1  0
 39 40  1  6
 39 41  1  0
 42 41  1  1
 42 43  1  0
 43 44  1  0
 44 45  1  0
 45 46  1  6
 46 47  1  0
 47 48  2  0
 47 49  1  0
 49 50  1  0
 49 51  1  0
 51 52  1  0
 49 53  1  0
 53 54  1  0
 45 55  1  0
 55 56  1  1
 56 57  1  0
 55 58  1  0
 58 42  1  0
 38 59  1  0
 59 60  1  0
 60 61  2  0
 60 62  1  0
 62 63  1  1
 63 64  1  0
 64 65  1  0
 65 66  1  0
 66 67  1  0
 67 62  1  0
 67 68  1  0
 68 69  2  0
 68 70  1  0
 70 71  2  0
 70 72  1  0
 72  3  1  0
 72 73  1  1
 72 74  1  0
 74  6  1  0
M  END
> <assay_chembl_id>
CHEMBL1777506

> <assay_description>
Antiproliferative activity against human LNCAP cells after 3 days by MTS assay

> <document_journal>
J Nat Prod

> <molecule_chembl_id>
CHEMBL1774940

> <standard_value>
2.5

> <IC50_uM>
0.0025

> <Activity>
Yes

> <Canonical_Smiles>
CC[C@@H]1CC[C@H]2C[C@H](OC)/C(C)=C/C=C/C=C/[C@@H](C)C[C@@H](C)C(=O)[C@H](OC)[C@H](O)/C(C)=C/[C@@H](C)C(=O)C[C@@H]([C@H](C)C[C@@H]3CC[C@@H](OC(=O)C(C)(CO)CO)[C@H](OC)C3)OC(=O)[C@@H]3CCCCN3C(=O)C(=O)[C@
]1(O)O2

$$$$

  SciTegic03142313312D

 25 28  0  0  0  0            999 V2000
    3.8983   -0.7459    0.0000 C   0  0
    2.6003   -1.4977    0.0000 O   0  0
    1.2990   -0.7500    0.0000 C   0  0
    1.2990    0.7500    0.0000 C   0  0
    0.0000    1.5000    0.0000 C   0  0
   -1.2990    0.7500    0.0000 C   0  0
   -2.5987    1.5004    0.0000 C   0  0
   -2.7390    2.9810    0.0000 N   0  0
   -4.2067    3.2905    0.0000 O   0  0
   -4.9546    1.9903    0.0000 C   0  0
   -6.4469    1.8311    0.0000 C   0  0
   -7.4153    2.9701    0.0000 C   0  0
   -8.8906    2.6991    0.0000 C   0  0
   -9.3937    1.2860    0.0000 C   0  0
   -8.4213    0.1438    0.0000 C   0  0
   -6.9460    0.4147    0.0000 C   0  0
   -3.9492    0.8772    0.0000 N   0  0
   -1.2990   -0.7500    0.0000 C   0  0
    0.0000   -1.5000    0.0000 C   0  0
   -0.0031   -3.0008    0.0000 O   0  0
   -1.3039   -3.7494    0.0000 C   0  0
   -1.4469   -5.2298    0.0000 C   0  0
   -2.9152   -5.5365    0.0000 C   0  0
   -3.6607   -4.2349    0.0000 C   0  0
   -2.6531   -3.1237    0.0000 C   0  0
  1  2  1  0
  2  3  1  0
  3  4  2  0
  4  5  1  0
  5  6  2  0
  6  7  1  0
  7  8  2  0
  8  9  1  0
  9 10  1  0
 10 11  1  0
 11 12  1  0
 12 13  1  0
 13 14  1  0
 14 15  1  0
 15 16  1  0
 16 11  1  0
 10 17  2  0
 17  7  1  0
  6 18  1  0
 18 19  2  0
 19  3  1  0
 19 20  1  0
 20 21  1  0
 21 22  1  0
 22 23  1  0
 23 24  1  0
 24 25  1  0
 25 21  1  0
M  END
> <assay_chembl_id>
CHEMBL1799178

> <assay_description>
Cytotoxicity against human LNCAP cells after 48 hrs by MTT assay

> <document_journal>
Eur J Med Chem

> <molecule_chembl_id>
CHEMBL1798009

> <standard_value>
92600

> <IC50_uM>
92.6

> <Activity>
No

> <Canonical_Smiles>
COc1ccc(-c2noc(C3CCCCC3)n2)cc1OC1CCCC1

$$$$

  SciTegic03142313312D

 28 30  0  0  0  0            999 V2000
    3.8983   -0.7459    0.0000 C   0  0
    2.6003   -1.4977    0.0000 O   0  0
    1.2990   -0.7500    0.0000 C   0  0
    1.2990    0.7500    0.0000 C   0  0
    0.0000    1.5000    0.0000 C   0  0
   -1.2990    0.7500    0.0000 C   0  0
   -2.5987    1.5004    0.0000 C   0  0
   -2.7390    2.9810    0.0000 N   0  0
   -4.2067    3.2905    0.0000 O   0  0
   -4.9546    1.9903    0.0000 C   0  0
   -6.4469    1.8311    0.0000 C   0  0
   -7.4153    2.9701    0.0000 C   0  0
   -8.8906    2.6991    0.0000 C   0  0
   -9.3937    1.2860    0.0000 N   0  0
  -10.8692    1.0118    0.0000 C   0  0
  -11.8435    2.1523    0.0000 O   0  0
  -11.3705   -0.4028    0.0000 O   0  0
  -12.8461   -0.6769    0.0000 C   0  0
  -13.3471   -2.0908    0.0000 C   0  0
  -14.3210   -0.9502    0.0000 C   0  0
  -13.8204    0.4636    0.0000 C   0  0
   -8.4213    0.1438    0.0000 C   0  0
   -6.9460    0.4147    0.0000 C   0  0
   -3.9492    0.8772    0.0000 N   0  0
   -1.2990   -0.7500    0.0000 C   0  0
    0.0000   -1.5000    0.0000 C   0  0
   -0.0031   -3.0008    0.0000 O   0  0
   -1.3032   -3.7490    0.0000 C   0  0
  1  2  1  0
  2  3  1  0
  3  4  2  0
  4  5  1  0
  5  6  2  0
  6  7  1  0
  7  8  2  0
  8  9  1  0
  9 10  1  0
 10 11  1  0
 11 12  1  0
 12 13  1  0
 13 14  1  0
 14 15  1  0
 15 16  2  0
 15 17  1  0
 17 18  1  0
 18 19  1  0
 18 20  1  0
 18 21  1  0
 14 22  1  0
 22 23  1  0
 23 11  1  0
 10 24  2  0
 24  7  1  0
  6 25  1  0
 25 26  2  0
 26  3  1  0
 26 27  1  0
 27 28  1  0
M  END
> <assay_chembl_id>
CHEMBL1799178

> <assay_description>
Cytotoxicity against human LNCAP cells after 48 hrs by MTT assay

> <document_journal>
Eur J Med Chem

> <molecule_chembl_id>
CHEMBL1798011

> <standard_value>
85600

> <IC50_uM>
85.6

> <Activity>
No

> <Canonical_Smiles>
COc1ccc(-c2noc(C3CCN(C(=O)OC(C)(C)C)CC3)n2)cc1OC

$$$$

  SciTegic03142313312D

 29 31  0  0  0  0            999 V2000
    5.1996   -1.4928    0.0000 C   0  0
    3.8990   -0.7455    0.0000 C   0  0
    2.6003   -1.4977    0.0000 O   0  0
    1.2990   -0.7500    0.0000 C   0  0
    1.2990    0.7500    0.0000 C   0  0
    0.0000    1.5000    0.0000 C   0  0
    0.0000    3.0008    0.0000 C   0  0
    1.2121    3.8625    0.0000 N   0  0
    0.7463    5.2884    0.0000 O   0  0
   -0.7537    5.2860    0.0000 C   0  0
   -1.6377    6.4987    0.0000 C   0  0
   -1.1355    7.9069    0.0000 C   0  0
   -2.1078    9.0491    0.0000 C   0  0
   -3.5831    8.7781    0.0000 N   0  0
   -4.5583    9.9190    0.0000 C   0  0
   -4.0578   11.3330    0.0000 O   0  0
   -6.0341    9.6458    0.0000 O   0  0
   -7.0093   10.7866    0.0000 C   0  0
   -8.4842   10.5135    0.0000 C   0  0
   -7.9834   11.9272    0.0000 C   0  0
   -6.5087   12.2006    0.0000 C   0  0
   -4.0862    7.3650    0.0000 C   0  0
   -3.1139    6.2228    0.0000 C   0  0
   -1.2149    3.8587    0.0000 N   0  0
   -1.2990    0.7500    0.0000 C   0  0
   -1.2990   -0.7500    0.0000 C   0  0
    0.0000   -1.5000    0.0000 C   0  0
   -0.0031   -3.0008    0.0000 O   0  0
   -1.3032   -3.7490    0.0000 C   0  0
  1  2  1  0
  2  3  1  0
  3  4  1  0
  4  5  2  0
  5  6  1  0
  6  7  1  0
  7  8  2  0
  8  9  1  0
  9 10  1  0
 10 11  1  0
 11 12  1  0
 12 13  1  0
 13 14  1  0
 14 15  1  0
 15 16  2  0
 15 17  1  0
 17 18  1  0
 18 19  1  0
 18 20  1  0
 18 21  1  0
 14 22  1  0
 22 23  1  0
 23 11  1  0
 10 24  2  0
 24  7  1  0
  6 25  2  0
 25 26  1  0
 26 27  2  0
 27  4  1  0
 27 28  1  0
 28 29  1  0
M  END
> <assay_chembl_id>
CHEMBL1799178

> <assay_description>
Cytotoxicity against human LNCAP cells after 48 hrs by MTT assay

> <document_journal>
Eur J Med Chem

> <molecule_chembl_id>
CHEMBL1798012

> <standard_value>
96100

> <IC50_uM>
96.1

> <Activity>
No

> <Canonical_Smiles>
CCOc1cc(-c2noc(C3CCN(C(=O)OC(C)(C)C)CC3)n2)ccc1OC

$$$$

  SciTegic03142313312D

 31 33  0  0  0  0            999 V2000
    7.7996   -1.4883    0.0000 C   0  0
    6.4990   -0.7409    0.0000 C   0  0
    5.2003   -1.4932    0.0000 C   0  0
    3.8990   -0.7455    0.0000 C   0  0
    2.6003   -1.4977    0.0000 O   0  0
    1.2990   -0.7500    0.0000 C   0  0
    1.2990    0.7500    0.0000 C   0  0
    0.0000    1.5000    0.0000 C   0  0
    0.0000    3.0008    0.0000 C   0  0
    1.2121    3.8625    0.0000 N   0  0
    0.7463    5.2884    0.0000 O   0  0
   -0.7537    5.2860    0.0000 C   0  0
   -1.6377    6.4987    0.0000 C   0  0
   -1.1355    7.9069    0.0000 C   0  0
   -2.1078    9.0491    0.0000 C   0  0
   -3.5831    8.7781    0.0000 N   0  0
   -4.5583    9.9190    0.0000 C   0  0
   -4.0578   11.3330    0.0000 O   0  0
   -6.0341    9.6458    0.0000 O   0  0
   -7.0093   10.7866    0.0000 C   0  0
   -8.4842   10.5135    0.0000 C   0  0
   -7.9834   11.9272    0.0000 C   0  0
   -6.5087   12.2006    0.0000 C   0  0
   -4.0862    7.3650    0.0000 C   0  0
   -3.1139    6.2228    0.0000 C   0  0
   -1.2149    3.8587    0.0000 N   0  0
   -1.2990    0.7500    0.0000 C   0  0
   -1.2990   -0.7500    0.0000 C   0  0
    0.0000   -1.5000    0.0000 C   0  0
   -0.0031   -3.0008    0.0000 O   0  0
   -1.3032   -3.7490    0.0000 C   0  0
  1  2  1  0
  2  3  1  0
  3  4  1  0
  4  5  1  0
  5  6  1  0
  6  7  2  0
  7  8  1  0
  8  9  1  0
  9 10  2  0
 10 11  1  0
 11 12  1  0
 12 13  1  0
 13 14  1  0
 14 15  1  0
 15 16  1  0
 16 17  1  0
 17 18  2  0
 17 19  1  0
 19 20  1  0
 20 21  1  0
 20 22  1  0
 20 23  1  0
 16 24  1  0
 24 25  1  0
 25 13  1  0
 12 26  2  0
 26  9  1  0
  8 27  2  0
 27 28  1  0
 28 29  2  0
 29  6  1  0
 29 30  1  0
 30 31  1  0
M  END
> <assay_chembl_id>
CHEMBL1799178

> <assay_description>
Cytotoxicity against human LNCAP cells after 48 hrs by MTT assay

> <document_journal>
Eur J Med Chem

> <molecule_chembl_id>
CHEMBL1798013

> <standard_value>
91000

> <IC50_uM>
91

> <Activity>
No

> <Canonical_Smiles>
CCCCOc1cc(-c2noc(C3CCN(C(=O)OC(C)(C)C)CC3)n2)ccc1OC

$$$$

  SciTegic03142313312D

 30 32  0  0  0  0            999 V2000
    3.8983   -0.7459    0.0000 C   0  0
    2.6003   -1.4977    0.0000 O   0  0
    1.2990   -0.7500    0.0000 C   0  0
    1.2990    0.7500    0.0000 C   0  0
    0.0000    1.5000    0.0000 C   0  0
    0.0000    3.0008    0.0000 C   0  0
    1.2121    3.8625    0.0000 N   0  0
    0.7463    5.2884    0.0000 O   0  0
   -0.7537    5.2860    0.0000 C   0  0
   -1.6377    6.4987    0.0000 C   0  0
   -1.1355    7.9069    0.0000 C   0  0
   -2.1078    9.0491    0.0000 C   0  0
   -3.5831    8.7781    0.0000 N   0  0
   -4.5583    9.9190    0.0000 C   0  0
   -4.0578   11.3330    0.0000 O   0  0
   -6.0341    9.6458    0.0000 O   0  0
   -7.0093   10.7866    0.0000 C   0  0
   -8.4842   10.5135    0.0000 C   0  0
   -7.9834   11.9272    0.0000 C   0  0
   -6.5087   12.2006    0.0000 C   0  0
   -4.0862    7.3650    0.0000 C   0  0
   -3.1139    6.2228    0.0000 C   0  0
   -1.2149    3.8587    0.0000 N   0  0
   -1.2990    0.7500    0.0000 C   0  0
   -1.2990   -0.7500    0.0000 C   0  0
   -2.6003   -1.4978    0.0000 O   0  0
   -3.8983   -0.7459    0.0000 C   0  0
    0.0000   -1.5000    0.0000 C   0  0
    0.0031   -3.0008    0.0000 O   0  0
    1.3032   -3.7490    0.0000 C   0  0
  1  2  1  0
  2  3  1  0
  3  4  2  0
  4  5  1  0
  5  6  1  0
  6  7  2  0
  7  8  1  0
  8  9  1  0
  9 10  1  0
 10 11  1  0
 11 12  1  0
 12 13  1  0
 13 14  1  0
 14 15  2  0
 14 16  1  0
 16 17  1  0
 17 18  1  0
 17 19  1  0
 17 20  1  0
 13 21  1  0
 21 22  1  0
 22 10  1  0
  9 23  2  0
 23  6  1  0
  5 24  2  0
 24 25  1  0
 25 26  1  0
 26 27  1  0
 25 28  2  0
 28  3  1  0
 28 29  1  0
 29 30  1  0
M  END
> <assay_chembl_id>
CHEMBL1799178

> <assay_description>
Cytotoxicity against human LNCAP cells after 48 hrs by MTT assay

> <document_journal>
Eur J Med Chem

> <molecule_chembl_id>
CHEMBL1798015

> <standard_value>
48200

> <IC50_uM>
48.2

> <Activity>
No

> <Canonical_Smiles>
COc1cc(-c2noc(C3CCN(C(=O)OC(C)(C)C)CC3)n2)cc(OC)c1OC

$$$$

  SciTegic03142313312D

 21 23  0  0  0  0            999 V2000
    3.8983   -0.7459    0.0000 C   0  0
    2.6003   -1.4977    0.0000 O   0  0
    1.2990   -0.7500    0.0000 C   0  0
    1.2990    0.7500    0.0000 C   0  0
    0.0000    1.5000    0.0000 C   0  0
   -1.2990    0.7500    0.0000 C   0  0
   -2.5987    1.5004    0.0000 C   0  0
   -2.7390    2.9810    0.0000 N   0  0
   -4.2067    3.2905    0.0000 O   0  0
   -4.9546    1.9903    0.0000 C   0  0
   -6.4469    1.8311    0.0000 C   0  0
   -7.4153    2.9701    0.0000 C   0  0
   -8.8906    2.6991    0.0000 C   0  0
   -9.3937    1.2860    0.0000 N   0  0
   -8.4213    0.1438    0.0000 C   0  0
   -6.9460    0.4147    0.0000 C   0  0
   -3.9492    0.8772    0.0000 N   0  0
   -1.2990   -0.7500    0.0000 C   0  0
    0.0000   -1.5000    0.0000 C   0  0
   -0.0031   -3.0008    0.0000 O   0  0
   -1.3032   -3.7490    0.0000 C   0  0
  1  2  1  0
  2  3  1  0
  3  4  2  0
  4  5  1  0
  5  6  2  0
  6  7  1  0
  7  8  2  0
  8  9  1  0
  9 10  1  0
 10 11  1  0
 11 12  1  0
 12 13  1  0
 13 14  1  0
 14 15  1  0
 15 16  1  0
 16 11  1  0
 10 17  2  0
 17  7  1  0
  6 18  1  0
 18 19  2  0
 19  3  1  0
 19 20  1  0
 20 21  1  0
M  END
> <assay_chembl_id>
CHEMBL1799178

> <assay_description>
Cytotoxicity against human LNCAP cells after 48 hrs by MTT assay

> <document_journal>
Eur J Med Chem

> <molecule_chembl_id>
CHEMBL1795417

> <standard_value>
38800

> <IC50_uM>
38.8

> <Activity>
No

> <Canonical_Smiles>
COc1ccc(-c2noc(C3CCNCC3)n2)cc1OC

$$$$

  SciTegic03142313312D

 24 26  0  0  0  0            999 V2000
    7.7996   -1.4883    0.0000 C   0  0
    6.4990   -0.7409    0.0000 C   0  0
    5.2003   -1.4932    0.0000 C   0  0
    3.8990   -0.7455    0.0000 C   0  0
    2.6003   -1.4977    0.0000 O   0  0
    1.2990   -0.7500    0.0000 C   0  0
    1.2990    0.7500    0.0000 C   0  0
    0.0000    1.5000    0.0000 C   0  0
    0.0000    3.0008    0.0000 C   0  0
    1.2121    3.8625    0.0000 N   0  0
    0.7463    5.2884    0.0000 O   0  0
   -0.7537    5.2860    0.0000 C   0  0
   -1.6377    6.4987    0.0000 C   0  0
   -1.1355    7.9069    0.0000 C   0  0
   -2.1078    9.0491    0.0000 C   0  0
   -3.5831    8.7781    0.0000 N   0  0
   -4.0862    7.3650    0.0000 C   0  0
   -3.1139    6.2228    0.0000 C   0  0
   -1.2149    3.8587    0.0000 N   0  0
   -1.2990    0.7500    0.0000 C   0  0
   -1.2990   -0.7500    0.0000 C   0  0
    0.0000   -1.5000    0.0000 C   0  0
   -0.0031   -3.0008    0.0000 O   0  0
   -1.3032   -3.7490    0.0000 C   0  0
  1  2  1  0
  2  3  1  0
  3  4  1  0
  4  5  1  0
  5  6  1  0
  6  7  2  0
  7  8  1  0
  8  9  1  0
  9 10  2  0
 10 11  1  0
 11 12  1  0
 12 13  1  0
 13 14  1  0
 14 15  1  0
 15 16  1  0
 16 17  1  0
 17 18  1  0
 18 13  1  0
 12 19  2  0
 19  9  1  0
  8 20  2  0
 20 21  1  0
 21 22  2  0
 22  6  1  0
 22 23  1  0
 23 24  1  0
M  END
> <assay_chembl_id>
CHEMBL1799178

> <assay_description>
Cytotoxicity against human LNCAP cells after 48 hrs by MTT assay

> <document_journal>
Eur J Med Chem

> <molecule_chembl_id>
CHEMBL1795419

> <standard_value>
32500

> <IC50_uM>
32.5

> <Activity>
No

> <Canonical_Smiles>
CCCCOc1cc(-c2noc(C3CCNCC3)n2)ccc1OC

$$$$

  SciTegic03142313312D

 25 28  0  0  0  0            999 V2000
    3.8983   -0.7459    0.0000 C   0  0
    2.6003   -1.4977    0.0000 O   0  0
    1.2990   -0.7500    0.0000 C   0  0
    1.2990    0.7500    0.0000 C   0  0
    0.0000    1.5000    0.0000 C   0  0
    0.0000    3.0008    0.0000 C   0  0
    1.2121    3.8625    0.0000 N   0  0
    0.7463    5.2884    0.0000 O   0  0
   -0.7537    5.2860    0.0000 C   0  0
   -1.6377    6.4987    0.0000 C   0  0
   -1.1355    7.9069    0.0000 C   0  0
   -2.1078    9.0491    0.0000 C   0  0
   -3.5831    8.7781    0.0000 N   0  0
   -4.0862    7.3650    0.0000 C   0  0
   -3.1139    6.2228    0.0000 C   0  0
   -1.2149    3.8587    0.0000 N   0  0
   -1.2990    0.7500    0.0000 C   0  0
   -1.2990   -0.7500    0.0000 C   0  0
    0.0000   -1.5000    0.0000 C   0  0
   -0.0031   -3.0008    0.0000 O   0  0
   -1.3039   -3.7494    0.0000 C   0  0
   -1.4469   -5.2298    0.0000 C   0  0
   -2.9152   -5.5365    0.0000 C   0  0
   -3.6607   -4.2349    0.0000 C   0  0
   -2.6531   -3.1237    0.0000 C   0  0
  1  2  1  0
  2  3  1  0
  3  4  2  0
  4  5  1  0
  5  6  1  0
  6  7  2  0
  7  8  1  0
  8  9  1  0
  9 10  1  0
 10 11  1  0
 11 12  1  0
 12 13  1  0
 13 14  1  0
 14 15  1  0
 15 10  1  0
  9 16  2  0
 16  6  1  0
  5 17  2  0
 17 18  1  0
 18 19  2  0
 19  3  1  0
 19 20  1  0
 20 21  1  0
 21 22  1  0
 22 23  1  0
 23 24  1  0
 24 25  1  0
 25 21  1  0
M  END
> <assay_chembl_id>
CHEMBL1799178

> <assay_description>
Cytotoxicity against human LNCAP cells after 48 hrs by MTT assay

> <document_journal>
Eur J Med Chem

> <molecule_chembl_id>
CHEMBL1795420

> <standard_value>
42200

> <IC50_uM>
42.2

> <Activity>
No

> <Canonical_Smiles>
COc1cc(-c2noc(C3CCNCC3)n2)ccc1OC1CCCC1

$$$$

  SciTegic03142313312D

 30 33  0  0  0  0            999 V2000
    3.8912   -5.2570    0.0000 C   0  0
    3.8933   -3.7570    0.0000 C   0  0
    2.5951   -3.0039    0.0000 O   0  0
    2.5973   -1.5031    0.0000 C   0  0
    3.8976   -0.7553    0.0000 O   0  0
    1.2990   -0.7500    0.0000 N   0  0
    1.2990    0.7500    0.0000 C   0  0
    0.0000    1.5000    0.0000 C   0  0
   -1.2990    0.7500    0.0000 C   0  0
   -2.5987    1.5004    0.0000 C   0  0
   -2.7390    2.9810    0.0000 N   0  0
   -4.2067    3.2905    0.0000 C   0  0
   -4.8193    4.6606    0.0000 C   0  0
   -4.0353    5.9336    0.0000 C   0  0
   -4.7489    7.2530    0.0000 C   0  0
   -6.2483    7.2947    0.0000 C   0  0
   -6.9596    8.6163    0.0000 O   0  0
   -6.1719    9.8928    0.0000 C   0  0
   -7.0341    6.0170    0.0000 C   0  0
   -8.5345    6.0556    0.0000 O   0  0
   -9.3189    4.7761    0.0000 C   0  0
  -10.8027    4.6743    0.0000 C   0  0
  -11.1502    3.2151    0.0000 C   0  0
   -9.8698    2.4337    0.0000 C   0  0
   -8.7309    3.4100    0.0000 C   0  0
   -6.3205    4.6976    0.0000 C   0  0
   -4.9546    1.9903    0.0000 N   0  0
   -3.9492    0.8772    0.0000 O   0  0
   -1.2990   -0.7500    0.0000 C   0  0
    0.0000   -1.5000    0.0000 C   0  0
  1  2  1  0
  2  3  1  0
  3  4  1  0
  4  5  2  0
  4  6  1  0
  6  7  1  0
  7  8  1  0
  8  9  1  0
  9 10  1  0
 10 11  2  0
 11 12  1  0
 12 13  1  0
 13 14  2  0
 14 15  1  0
 15 16  2  0
 16 17  1  0
 17 18  1  0
 16 19  1  0
 19 20  1  0
 20 21  1  0
 21 22  1  0
 22 23  1  0
 23 24  1  0
 24 25  1  0
 25 21  1  0
 19 26  2  0
 26 13  1  0
 12 27  2  0
 27 28  1  0
 28 10  1  0
  9 29  1  0
 29 30  1  0
 30  6  1  0
M  END
> <assay_chembl_id>
CHEMBL1799178

> <assay_description>
Cytotoxicity against human LNCAP cells after 48 hrs by MTT assay

> <document_journal>
Eur J Med Chem

> <molecule_chembl_id>
CHEMBL1795422

> <standard_value>
58700

> <IC50_uM>
58.7

> <Activity>
No

> <Canonical_Smiles>
CCOC(=O)N1CCC(c2nc(-c3ccc(OC)c(OC4CCCC4)c3)no2)CC1

$$$$

  SciTegic03142313312D

 19 19  0  0  0  0            999 V2000
    3.8912   -5.2570    0.0000 C   0  0
    3.8933   -3.7570    0.0000 C   0  0
    5.1937   -3.0093    0.0000 C   0  0
    2.5951   -3.0039    0.0000 C   0  0
    1.2948   -3.7516    0.0000 O   0  0
    2.5973   -1.5031    0.0000 N   0  0
    1.2990   -0.7500    0.0000 C   0  0
    1.2990    0.7500    0.0000 C   0  0
    0.0000    1.5000    0.0000 C   0  0
   -1.2990    0.7500    0.0000 C   0  0
   -2.5973    1.5031    0.0000 N   0  3
   -2.5951    3.0031    0.0000 O   0  0
   -3.8976    0.7553    0.0000 O   0  5
   -1.2990   -0.7500    0.0000 C   0  0
   -2.5988   -1.5004    0.0000 C   0  0
   -3.8983   -0.7513    0.0000 F   0  0
   -2.5983   -3.0004    0.0000 F   0  0
   -3.8975   -2.2510    0.0000 F   0  0
    0.0000   -1.5000    0.0000 C   0  0
  1  2  1  0
  2  3  1  0
  2  4  1  0
  4  5  2  0
  4  6  1  0
  6  7  1  0
  7  8  2  0
  8  9  1  0
  9 10  2  0
 10 11  1  0
 11 12  2  0
 11 13  1  0
 10 14  1  0
 14 15  1  0
 15 16  1  0
 15 17  1  0
 15 18  1  0
 14 19  2  0
 19  7  1  0
M  CHG  2  11   1  13  -1
M  END
> <assay_chembl_id>
CHEMBL1810449

> <assay_description>
Anticancer activity against human LNCAP cells after 24 hrs by MTT assay in presence of testosterone

> <document_journal>
Eur J Med Chem

> <molecule_chembl_id>
CHEMBL806

> <standard_value>
900

> <IC50_uM>
0.9

> <Activity>
Yes

> <Canonical_Smiles>
CC(C)C(=O)Nc1ccc([N+](=O)[O-])c(C(F)(F)F)c1

$$$$

  SciTegic03142313312D

 24 26  0  0  1  0            999 V2000
    3.8929   -3.7562    0.0000 C   0  0
    2.5951   -3.0039    0.0000 C   0  0  2  0  0  0
    2.5973   -1.5031    0.0000 C   0  0  1  0  0  0
    3.8976   -0.7553    0.0000 O   0  0
    1.2990   -0.7500    0.0000 C   0  0
    1.2990    0.7500    0.0000 C   0  0
    0.0000    1.5000    0.0000 C   0  0
   -1.2990    0.7500    0.0000 C   0  0
   -2.5981    1.5000    0.0000 F   0  0
   -1.2990   -0.7500    0.0000 C   0  0
    0.0000   -1.5000    0.0000 C   0  0
    2.4911   -4.4637    0.0000 N   0  0
    1.0234   -4.7733    0.0000 C   0  0
    0.4111   -6.1426    0.0000 S   0  0
    0.2755   -3.4730    0.0000 N   0  0
   -1.2168   -3.3138    0.0000 C   0  0
   -2.1852   -4.4528    0.0000 C   0  0
   -3.6605   -4.1819    0.0000 C   0  0
   -4.1636   -2.7687    0.0000 C   0  0
   -5.6389   -2.4978    0.0000 Cl  0  0
   -3.1913   -1.6265    0.0000 C   0  0
   -1.7159   -1.8974    0.0000 C   0  0
    1.2809   -2.3599    0.0000 C   0  0
    1.0918   -1.3780    0.0000 O   0  0
  2  1  1  6
  2  3  1  0
  3  4  1  6
  3  5  1  0
  5  6  2  0
  6  7  1  0
  7  8  2  0
  8  9  1  0
  8 10  1  0
 10 11  2  0
 11  5  1  0
  2 12  1  0
 12 13  1  0
 13 14  2  0
 13 15  1  0
 15 16  1  0
 16 17  2  0
 17 18  1  0
 18 19  2  0
 19 20  1  0
 19 21  1  0
 21 22  2  0
 22 16  1  0
 15 23  1  0
 23  2  1  0
 23 24  2  0
M  END
> <assay_chembl_id>
CHEMBL1810449

> <assay_description>
Anticancer activity against human LNCAP cells after 24 hrs by MTT assay in presence of testosterone

> <document_journal>
Eur J Med Chem

> <molecule_chembl_id>
CHEMBL1807095

> <standard_value>
860

> <IC50_uM>
0.86

> <Activity>
Yes

> <Canonical_Smiles>
C[C@]1([C@@H](O)c2ccc(F)cc2)NC(=S)N(c2ccc(Cl)cc2)C1=O

$$$$

  SciTegic03142313312D

 25 27  0  0  1  0            999 V2000
    3.8929   -3.7562    0.0000 C   0  0
    2.5951   -3.0039    0.0000 C   0  0  2  0  0  0
    2.5973   -1.5031    0.0000 C   0  0  1  0  0  0
    3.8976   -0.7553    0.0000 O   0  0
    1.2990   -0.7500    0.0000 C   0  0
    1.2990    0.7500    0.0000 C   0  0
    0.0000    1.5000    0.0000 C   0  0
   -1.2990    0.7500    0.0000 C   0  0
   -2.5981    1.5000    0.0000 Cl  0  0
   -1.2990   -0.7500    0.0000 C   0  0
    0.0000   -1.5000    0.0000 C   0  0
    2.4911   -4.4637    0.0000 N   0  0
    1.0234   -4.7733    0.0000 C   0  0
    0.4111   -6.1426    0.0000 S   0  0
    0.2755   -3.4730    0.0000 N   0  0
   -1.2168   -3.3138    0.0000 C   0  0
   -2.1852   -4.4528    0.0000 C   0  0
   -3.6605   -4.1819    0.0000 C   0  0
   -4.1636   -2.7687    0.0000 C   0  0
   -5.6389   -2.4978    0.0000 F   0  0
   -3.1913   -1.6265    0.0000 C   0  0
   -3.6943   -0.2134    0.0000 Cl  0  0
   -1.7159   -1.8974    0.0000 C   0  0
    1.2809   -2.3599    0.0000 C   0  0
    1.0918   -1.3780    0.0000 O   0  0
  2  1  1  6
  2  3  1  0
  3  4  1  6
  3  5  1  0
  5  6  2  0
  6  7  1  0
  7  8  2  0
  8  9  1  0
  8 10  1  0
 10 11  2  0
 11  5  1  0
  2 12  1  0
 12 13  1  0
 13 14  2  0
 13 15  1  0
 15 16  1  0
 16 17  2  0
 17 18  1  0
 18 19  2  0
 19 20  1  0
 19 21  1  0
 21 22  1  0
 21 23  2  0
 23 16  1  0
 15 24  1  0
 24  2  1  0
 24 25  2  0
M  END
> <assay_chembl_id>
CHEMBL1810449

> <assay_description>
Anticancer activity against human LNCAP cells after 24 hrs by MTT assay in presence of testosterone

> <document_journal>
Eur J Med Chem

> <molecule_chembl_id>
CHEMBL1807099

> <standard_value>
98200

> <IC50_uM>
98.2

> <Activity>
No

> <Canonical_Smiles>
C[C@]1([C@@H](O)c2ccc(Cl)cc2)NC(=S)N(c2ccc(F)c(Cl)c2)C1=O

$$$$

  SciTegic03142313312D

 25 27  0  0  1  0            999 V2000
    3.8929   -3.7562    0.0000 C   0  0
    2.5951   -3.0039    0.0000 C   0  0  2  0  0  0
    2.5973   -1.5031    0.0000 C   0  0  1  0  0  0
    3.8976   -0.7553    0.0000 O   0  0
    1.2990   -0.7500    0.0000 C   0  0
    1.2990    0.7500    0.0000 C   0  0
    0.0000    1.5000    0.0000 C   0  0
   -1.2990    0.7500    0.0000 C   0  0
   -2.5981    1.5000    0.0000 Br  0  0
   -1.2990   -0.7500    0.0000 C   0  0
    0.0000   -1.5000    0.0000 C   0  0
    2.4911   -4.4637    0.0000 N   0  0
    1.0234   -4.7733    0.0000 C   0  0
    0.4111   -6.1426    0.0000 S   0  0
    0.2755   -3.4730    0.0000 N   0  0
   -1.2168   -3.3138    0.0000 C   0  0
   -2.1852   -4.4528    0.0000 C   0  0
   -3.6605   -4.1819    0.0000 C   0  0
   -4.1636   -2.7687    0.0000 C   0  0
   -5.6389   -2.4978    0.0000 F   0  0
   -3.1913   -1.6265    0.0000 C   0  0
   -3.6943   -0.2134    0.0000 Cl  0  0
   -1.7159   -1.8974    0.0000 C   0  0
    1.2809   -2.3599    0.0000 C   0  0
    1.0918   -1.3780    0.0000 O   0  0
  2  1  1  6
  2  3  1  0
  3  4  1  6
  3  5  1  0
  5  6  2  0
  6  7  1  0
  7  8  2  0
  8  9  1  0
  8 10  1  0
 10 11  2  0
 11  5  1  0
  2 12  1  0
 12 13  1  0
 13 14  2  0
 13 15  1  0
 15 16  1  0
 16 17  2  0
 17 18  1  0
 18 19  2  0
 19 20  1  0
 19 21  1  0
 21 22  1  0
 21 23  2  0
 23 16  1  0
 15 24  1  0
 24  2  1  0
 24 25  2  0
M  END
> <assay_chembl_id>
CHEMBL1810449

> <assay_description>
Anticancer activity against human LNCAP cells after 24 hrs by MTT assay in presence of testosterone

> <document_journal>
Eur J Med Chem

> <molecule_chembl_id>
CHEMBL1806845

> <standard_value>
100000

> <IC50_uM>
100

> <Activity>
No

> <Canonical_Smiles>
C[C@]1([C@@H](O)c2ccc(Br)cc2)NC(=S)N(c2ccc(F)c(Cl)c2)C1=O

$$$$

  SciTegic03142313312D

 28 30  0  0  1  0            999 V2000
    3.8929   -3.7562    0.0000 C   0  0
    2.5951   -3.0039    0.0000 C   0  0  2  0  0  0
    2.5973   -1.5031    0.0000 C   0  0  1  0  0  0
    3.8976   -0.7553    0.0000 O   0  0
    1.2990   -0.7500    0.0000 C   0  0
    1.2990    0.7500    0.0000 C   0  0
    0.0000    1.5000    0.0000 C   0  0
   -1.2990    0.7500    0.0000 C   0  0
   -2.5981    1.5000    0.0000 F   0  0
   -1.2990   -0.7500    0.0000 C   0  0
    0.0000   -1.5000    0.0000 C   0  0
    2.4911   -4.4637    0.0000 N   0  0
    1.0234   -4.7733    0.0000 C   0  0
    0.4111   -6.1426    0.0000 S   0  0
    0.2755   -3.4730    0.0000 N   0  0
   -1.2168   -3.3138    0.0000 C   0  0
   -2.1852   -4.4528    0.0000 C   0  0
   -3.6605   -4.1819    0.0000 C   0  0
   -4.1636   -2.7687    0.0000 C   0  0
   -5.6389   -2.4978    0.0000 Cl  0  0
   -3.1913   -1.6265    0.0000 C   0  0
   -3.6946   -0.2126    0.0000 C   0  0
   -5.1697    0.0593    0.0000 F   0  0
   -2.7219    0.9293    0.0000 F   0  0
   -4.1969    1.2008    0.0000 F   0  0
   -1.7159   -1.8974    0.0000 C   0  0
    1.2809   -2.3599    0.0000 C   0  0
    1.0918   -1.3780    0.0000 O   0  0
  2  1  1  6
  2  3  1  0
  3  4  1  6
  3  5  1  0
  5  6  2  0
  6  7  1  0
  7  8  2  0
  8  9  1  0
  8 10  1  0
 10 11  2  0
 11  5  1  0
  2 12  1  0
 12 13  1  0
 13 14  2  0
 13 15  1  0
 15 16  1  0
 16 17  2  0
 17 18  1  0
 18 19  2  0
 19 20  1  0
 19 21  1  0
 21 22  1  0
 22 23  1  0
 22 24  1  0
 22 25  1  0
 21 26  2  0
 26 16  1  0
 15 27  1  0
 27  2  1  0
 27 28  2  0
M  END
> <assay_chembl_id>
CHEMBL1810449

> <assay_description>
Anticancer activity against human LNCAP cells after 24 hrs by MTT assay in presence of testosterone

> <document_journal>
Eur J Med Chem

> <molecule_chembl_id>
CHEMBL1806846

> <standard_value>
100000

> <IC50_uM>
100

> <Activity>
No

> <Canonical_Smiles>
C[C@]1([C@@H](O)c2ccc(F)cc2)NC(=S)N(c2ccc(Cl)c(C(F)(F)F)c2)C1=O

$$$$

  SciTegic03142313312D

 28 30  0  0  1  0            999 V2000
    3.8929   -3.7562    0.0000 C   0  0
    2.5951   -3.0039    0.0000 C   0  0  2  0  0  0
    2.5973   -1.5031    0.0000 C   0  0  1  0  0  0
    3.8976   -0.7553    0.0000 O   0  0
    1.2990   -0.7500    0.0000 C   0  0
    1.2990    0.7500    0.0000 C   0  0
    0.0000    1.5000    0.0000 C   0  0
   -1.2990    0.7500    0.0000 C   0  0
   -2.5981    1.5000    0.0000 Cl  0  0
   -1.2990   -0.7500    0.0000 C   0  0
    0.0000   -1.5000    0.0000 C   0  0
    2.4911   -4.4637    0.0000 N   0  0
    1.0234   -4.7733    0.0000 C   0  0
    0.4111   -6.1426    0.0000 S   0  0
    0.2755   -3.4730    0.0000 N   0  0
   -1.2168   -3.3138    0.0000 C   0  0
   -2.1852   -4.4528    0.0000 C   0  0
   -3.6605   -4.1819    0.0000 C   0  0
   -4.1636   -2.7687    0.0000 C   0  0
   -5.6389   -2.4978    0.0000 Cl  0  0
   -3.1913   -1.6265    0.0000 C   0  0
   -3.6946   -0.2126    0.0000 C   0  0
   -5.1697    0.0593    0.0000 F   0  0
   -2.7219    0.9293    0.0000 F   0  0
   -4.1969    1.2008    0.0000 F   0  0
   -1.7159   -1.8974    0.0000 C   0  0
    1.2809   -2.3599    0.0000 C   0  0
    1.0918   -1.3780    0.0000 O   0  0
  2  1  1  6
  2  3  1  0
  3  4  1  6
  3  5  1  0
  5  6  2  0
  6  7  1  0
  7  8  2  0
  8  9  1  0
  8 10  1  0
 10 11  2  0
 11  5  1  0
  2 12  1  0
 12 13  1  0
 13 14  2  0
 13 15  1  0
 15 16  1  0
 16 17  2  0
 17 18  1  0
 18 19  2  0
 19 20  1  0
 19 21  1  0
 21 22  1  0
 22 23  1  0
 22 24  1  0
 22 25  1  0
 21 26  2  0
 26 16  1  0
 15 27  1  0
 27  2  1  0
 27 28  2  0
M  END
> <assay_chembl_id>
CHEMBL1810449

> <assay_description>
Anticancer activity against human LNCAP cells after 24 hrs by MTT assay in presence of testosterone

> <document_journal>
Eur J Med Chem

> <molecule_chembl_id>
CHEMBL1806847

> <standard_value>
960

> <IC50_uM>
0.96

> <Activity>
Yes

> <Canonical_Smiles>
C[C@]1([C@@H](O)c2ccc(Cl)cc2)NC(=S)N(c2ccc(Cl)c(C(F)(F)F)c2)C1=O

$$$$

  SciTegic03142313312D

 28 30  0  0  1  0            999 V2000
    3.8929   -3.7562    0.0000 C   0  0
    2.5951   -3.0039    0.0000 C   0  0  2  0  0  0
    2.5973   -1.5031    0.0000 C   0  0  1  0  0  0
    3.8976   -0.7553    0.0000 O   0  0
    1.2990   -0.7500    0.0000 C   0  0
    1.2990    0.7500    0.0000 C   0  0
    0.0000    1.5000    0.0000 C   0  0
   -1.2990    0.7500    0.0000 C   0  0
   -2.5981    1.5000    0.0000 Br  0  0
   -1.2990   -0.7500    0.0000 C   0  0
    0.0000   -1.5000    0.0000 C   0  0
    2.4911   -4.4637    0.0000 N   0  0
    1.0234   -4.7733    0.0000 C   0  0
    0.4111   -6.1426    0.0000 S   0  0
    0.2755   -3.4730    0.0000 N   0  0
   -1.2168   -3.3138    0.0000 C   0  0
   -2.1852   -4.4528    0.0000 C   0  0
   -3.6605   -4.1819    0.0000 C   0  0
   -4.1636   -2.7687    0.0000 C   0  0
   -5.6389   -2.4978    0.0000 Cl  0  0
   -3.1913   -1.6265    0.0000 C   0  0
   -3.6946   -0.2126    0.0000 C   0  0
   -5.1697    0.0593    0.0000 F   0  0
   -2.7219    0.9293    0.0000 F   0  0
   -4.1969    1.2008    0.0000 F   0  0
   -1.7159   -1.8974    0.0000 C   0  0
    1.2809   -2.3599    0.0000 C   0  0
    1.0918   -1.3780    0.0000 O   0  0
  2  1  1  6
  2  3  1  0
  3  4  1  6
  3  5  1  0
  5  6  2  0
  6  7  1  0
  7  8  2  0
  8  9  1  0
  8 10  1  0
 10 11  2  0
 11  5  1  0
  2 12  1  0
 12 13  1  0
 13 14  2  0
 13 15  1  0
 15 16  1  0
 16 17  2  0
 17 18  1  0
 18 19  2  0
 19 20  1  0
 19 21  1  0
 21 22  1  0
 22 23  1  0
 22 24  1  0
 22 25  1  0
 21 26  2  0
 26 16  1  0
 15 27  1  0
 27  2  1  0
 27 28  2  0
M  END
> <assay_chembl_id>
CHEMBL1810449

> <assay_description>
Anticancer activity against human LNCAP cells after 24 hrs by MTT assay in presence of testosterone

> <document_journal>
Eur J Med Chem

> <molecule_chembl_id>
CHEMBL1806848

> <standard_value>
500

> <IC50_uM>
0.5

> <Activity>
Yes

> <Canonical_Smiles>
C[C@]1([C@@H](O)c2ccc(Br)cc2)NC(=S)N(c2ccc(Cl)c(C(F)(F)F)c2)C1=O

$$$$

  SciTegic03142313312D

 26 28  0  0  1  0            999 V2000
    3.8929   -3.7562    0.0000 C   0  0
    2.5951   -3.0039    0.0000 C   0  0  2  0  0  0
    2.5973   -1.5031    0.0000 C   0  0  1  0  0  0
    3.8976   -0.7553    0.0000 O   0  0
    1.2990   -0.7500    0.0000 C   0  0
    1.2990    0.7500    0.0000 C   0  0
    0.0000    1.5000    0.0000 C   0  0
   -1.2990    0.7500    0.0000 C   0  0
   -2.5981    1.5000    0.0000 F   0  0
   -1.2990   -0.7500    0.0000 C   0  0
    0.0000   -1.5000    0.0000 C   0  0
    2.4911   -4.4637    0.0000 N   0  0
    1.0234   -4.7733    0.0000 C   0  0
    0.4111   -6.1426    0.0000 S   0  0
    0.2755   -3.4730    0.0000 N   0  0
   -1.2168   -3.3138    0.0000 C   0  0
   -2.1852   -4.4528    0.0000 C   0  0
   -3.6605   -4.1819    0.0000 C   0  0
   -4.1636   -2.7687    0.0000 C   0  0
   -5.6397   -2.4976    0.0000 C   0  0
   -7.1150   -2.2267    0.0000 N   0  0
   -3.1913   -1.6265    0.0000 C   0  0
   -3.6943   -0.2134    0.0000 Cl  0  0
   -1.7159   -1.8974    0.0000 C   0  0
    1.2809   -2.3599    0.0000 C   0  0
    1.0918   -1.3780    0.0000 O   0  0
  2  1  1  6
  2  3  1  0
  3  4  1  6
  3  5  1  0
  5  6  2  0
  6  7  1  0
  7  8  2  0
  8  9  1  0
  8 10  1  0
 10 11  2  0
 11  5  1  0
  2 12  1  0
 12 13  1  0
 13 14  2  0
 13 15  1  0
 15 16  1  0
 16 17  2  0
 17 18  1  0
 18 19  2  0
 19 20  1  0
 20 21  3  0
 19 22  1  0
 22 23  1  0
 22 24  2  0
 24 16  1  0
 15 25  1  0
 25  2  1  0
 25 26  2  0
M  END
> <assay_chembl_id>
CHEMBL1810449

> <assay_description>
Anticancer activity against human LNCAP cells after 24 hrs by MTT assay in presence of testosterone

> <document_journal>
Eur J Med Chem

> <molecule_chembl_id>
CHEMBL1806849

> <standard_value>
93200

> <IC50_uM>
93.2

> <Activity>
No

> <Canonical_Smiles>
C[C@]1([C@@H](O)c2ccc(F)cc2)NC(=S)N(c2ccc(C#N)c(Cl)c2)C1=O

$$$$

  SciTegic03142313312D

 26 28  0  0  1  0            999 V2000
    3.8929   -3.7562    0.0000 C   0  0
    2.5951   -3.0039    0.0000 C   0  0  2  0  0  0
    2.5973   -1.5031    0.0000 C   0  0  1  0  0  0
    3.8976   -0.7553    0.0000 O   0  0
    1.2990   -0.7500    0.0000 C   0  0
    1.2990    0.7500    0.0000 C   0  0
    0.0000    1.5000    0.0000 C   0  0
   -1.2990    0.7500    0.0000 C   0  0
   -2.5981    1.5000    0.0000 Br  0  0
   -1.2990   -0.7500    0.0000 C   0  0
    0.0000   -1.5000    0.0000 C   0  0
    2.4911   -4.4637    0.0000 N   0  0
    1.0234   -4.7733    0.0000 C   0  0
    0.4111   -6.1426    0.0000 S   0  0
    0.2755   -3.4730    0.0000 N   0  0
   -1.2168   -3.3138    0.0000 C   0  0
   -2.1852   -4.4528    0.0000 C   0  0
   -3.6605   -4.1819    0.0000 C   0  0
   -4.1636   -2.7687    0.0000 C   0  0
   -5.6397   -2.4976    0.0000 C   0  0
   -7.1150   -2.2267    0.0000 N   0  0
   -3.1913   -1.6265    0.0000 C   0  0
   -3.6943   -0.2134    0.0000 Cl  0  0
   -1.7159   -1.8974    0.0000 C   0  0
    1.2809   -2.3599    0.0000 C   0  0
    1.0918   -1.3780    0.0000 O   0  0
  2  1  1  6
  2  3  1  0
  3  4  1  6
  3  5  1  0
  5  6  2  0
  6  7  1  0
  7  8  2  0
  8  9  1  0
  8 10  1  0
 10 11  2  0
 11  5  1  0
  2 12  1  0
 12 13  1  0
 13 14  2  0
 13 15  1  0
 15 16  1  0
 16 17  2  0
 17 18  1  0
 18 19  2  0
 19 20  1  0
 20 21  3  0
 19 22  1  0
 22 23  1  0
 22 24  2  0
 24 16  1  0
 15 25  1  0
 25  2  1  0
 25 26  2  0
M  END
> <assay_chembl_id>
CHEMBL1810449

> <assay_description>
Anticancer activity against human LNCAP cells after 24 hrs by MTT assay in presence of testosterone

> <document_journal>
Eur J Med Chem

> <molecule_chembl_id>
CHEMBL1806851

> <standard_value>
100000

> <IC50_uM>
100

> <Activity>
No

> <Canonical_Smiles>
C[C@]1([C@@H](O)c2ccc(Br)cc2)NC(=S)N(c2ccc(C#N)c(Cl)c2)C1=O

$$$$

  SciTegic03142313312D

 29 31  0  0  1  0            999 V2000
    3.8929   -3.7562    0.0000 C   0  0
    2.5951   -3.0039    0.0000 C   0  0  2  0  0  0
    2.5973   -1.5031    0.0000 C   0  0  1  0  0  0
    3.8976   -0.7553    0.0000 O   0  0
    1.2990   -0.7500    0.0000 C   0  0
    1.2990    0.7500    0.0000 C   0  0
    0.0000    1.5000    0.0000 C   0  0
   -1.2990    0.7500    0.0000 C   0  0
   -2.5981    1.5000    0.0000 F   0  0
   -1.2990   -0.7500    0.0000 C   0  0
    0.0000   -1.5000    0.0000 C   0  0
    2.4911   -4.4637    0.0000 N   0  0
    1.0234   -4.7733    0.0000 C   0  0
    0.4111   -6.1426    0.0000 S   0  0
    0.2755   -3.4730    0.0000 N   0  0
   -1.2168   -3.3138    0.0000 C   0  0
   -2.1852   -4.4528    0.0000 C   0  0
   -3.6605   -4.1819    0.0000 C   0  0
   -4.1636   -2.7687    0.0000 C   0  0
   -5.6397   -2.4976    0.0000 C   0  0
   -7.1150   -2.2267    0.0000 N   0  0
   -3.1913   -1.6265    0.0000 C   0  0
   -3.6946   -0.2126    0.0000 C   0  0
   -5.1697    0.0593    0.0000 F   0  0
   -2.7219    0.9293    0.0000 F   0  0
   -4.1969    1.2008    0.0000 F   0  0
   -1.7159   -1.8974    0.0000 C   0  0
    1.2809   -2.3599    0.0000 C   0  0
    1.0918   -1.3780    0.0000 O   0  0
  2  1  1  6
  2  3  1  0
  3  4  1  6
  3  5  1  0
  5  6  2  0
  6  7  1  0
  7  8  2  0
  8  9  1  0
  8 10  1  0
 10 11  2  0
 11  5  1  0
  2 12  1  0
 12 13  1  0
 13 14  2  0
 13 15  1  0
 15 16  1  0
 16 17  2  0
 17 18  1  0
 18 19  2  0
 19 20  1  0
 20 21  3  0
 19 22  1  0
 22 23  1  0
 23 24  1  0
 23 25  1  0
 23 26  1  0
 22 27  2  0
 27 16  1  0
 15 28  1  0
 28  2  1  0
 28 29  2  0
M  END
> <assay_chembl_id>
CHEMBL1810449

> <assay_description>
Anticancer activity against human LNCAP cells after 24 hrs by MTT assay in presence of testosterone

> <document_journal>
Eur J Med Chem

> <molecule_chembl_id>
CHEMBL1806852

> <standard_value>
100000

> <IC50_uM>
100

> <Activity>
No

> <Canonical_Smiles>
C[C@]1([C@@H](O)c2ccc(F)cc2)NC(=S)N(c2ccc(C#N)c(C(F)(F)F)c2)C1=O

$$$$

  SciTegic03142313312D

 29 31  0  0  1  0            999 V2000
    3.8929   -3.7562    0.0000 C   0  0
    2.5951   -3.0039    0.0000 C   0  0  2  0  0  0
    2.5973   -1.5031    0.0000 C   0  0  1  0  0  0
    3.8976   -0.7553    0.0000 O   0  0
    1.2990   -0.7500    0.0000 C   0  0
    1.2990    0.7500    0.0000 C   0  0
    0.0000    1.5000    0.0000 C   0  0
   -1.2990    0.7500    0.0000 C   0  0
   -2.5981    1.5000    0.0000 Cl  0  0
   -1.2990   -0.7500    0.0000 C   0  0
    0.0000   -1.5000    0.0000 C   0  0
    2.4911   -4.4637    0.0000 N   0  0
    1.0234   -4.7733    0.0000 C   0  0
    0.4111   -6.1426    0.0000 S   0  0
    0.2755   -3.4730    0.0000 N   0  0
   -1.2168   -3.3138    0.0000 C   0  0
   -2.1852   -4.4528    0.0000 C   0  0
   -3.6605   -4.1819    0.0000 C   0  0
   -4.1636   -2.7687    0.0000 C   0  0
   -5.6397   -2.4976    0.0000 C   0  0
   -7.1150   -2.2267    0.0000 N   0  0
   -3.1913   -1.6265    0.0000 C   0  0
   -3.6946   -0.2126    0.0000 C   0  0
   -5.1697    0.0593    0.0000 F   0  0
   -2.7219    0.9293    0.0000 F   0  0
   -4.1969    1.2008    0.0000 F   0  0
   -1.7159   -1.8974    0.0000 C   0  0
    1.2809   -2.3599    0.0000 C   0  0
    1.0918   -1.3780    0.0000 O   0  0
  2  1  1  6
  2  3  1  0
  3  4  1  6
  3  5  1  0
  5  6  2  0
  6  7  1  0
  7  8  2  0
  8  9  1  0
  8 10  1  0
 10 11  2  0
 11  5  1  0
  2 12  1  0
 12 13  1  0
 13 14  2  0
 13 15  1  0
 15 16  1  0
 16 17  2  0
 17 18  1  0
 18 19  2  0
 19 20  1  0
 20 21  3  0
 19 22  1  0
 22 23  1  0
 23 24  1  0
 23 25  1  0
 23 26  1  0
 22 27  2  0
 27 16  1  0
 15 28  1  0
 28  2  1  0
 28 29  2  0
M  END
> <assay_chembl_id>
CHEMBL1810449

> <assay_description>
Anticancer activity against human LNCAP cells after 24 hrs by MTT assay in presence of testosterone

> <document_journal>
Eur J Med Chem

> <molecule_chembl_id>
CHEMBL1806853

> <standard_value>
507

> <IC50_uM>
0.507

> <Activity>
Yes

> <Canonical_Smiles>
C[C@]1([C@@H](O)c2ccc(Cl)cc2)NC(=S)N(c2ccc(C#N)c(C(F)(F)F)c2)C1=O

$$$$

  SciTegic03142313312D

 29 31  0  0  1  0            999 V2000
    3.8929   -3.7562    0.0000 C   0  0
    2.5951   -3.0039    0.0000 C   0  0  2  0  0  0
    2.5973   -1.5031    0.0000 C   0  0  1  0  0  0
    3.8976   -0.7553    0.0000 O   0  0
    1.2990   -0.7500    0.0000 C   0  0
    1.2990    0.7500    0.0000 C   0  0
    0.0000    1.5000    0.0000 C   0  0
   -1.2990    0.7500    0.0000 C   0  0
   -2.5981    1.5000    0.0000 Br  0  0
   -1.2990   -0.7500    0.0000 C   0  0
    0.0000   -1.5000    0.0000 C   0  0
    2.4911   -4.4637    0.0000 N   0  0
    1.0234   -4.7733    0.0000 C   0  0
    0.4111   -6.1426    0.0000 S   0  0
    0.2755   -3.4730    0.0000 N   0  0
   -1.2168   -3.3138    0.0000 C   0  0
   -2.1852   -4.4528    0.0000 C   0  0
   -3.6605   -4.1819    0.0000 C   0  0
   -4.1636   -2.7687    0.0000 C   0  0
   -5.6397   -2.4976    0.0000 C   0  0
   -7.1150   -2.2267    0.0000 N   0  0
   -3.1913   -1.6265    0.0000 C   0  0
   -3.6946   -0.2126    0.0000 C   0  0
   -5.1697    0.0593    0.0000 F   0  0
   -2.7219    0.9293    0.0000 F   0  0
   -4.1969    1.2008    0.0000 F   0  0
   -1.7159   -1.8974    0.0000 C   0  0
    1.2809   -2.3599    0.0000 C   0  0
    1.0918   -1.3780    0.0000 O   0  0
  2  1  1  6
  2  3  1  0
  3  4  1  6
  3  5  1  0
  5  6  2  0
  6  7  1  0
  7  8  2  0
  8  9  1  0
  8 10  1  0
 10 11  2  0
 11  5  1  0
  2 12  1  0
 12 13  1  0
 13 14  2  0
 13 15  1  0
 15 16  1  0
 16 17  2  0
 17 18  1  0
 18 19  2  0
 19 20  1  0
 20 21  3  0
 19 22  1  0
 22 23  1  0
 23 24  1  0
 23 25  1  0
 23 26  1  0
 22 27  2  0
 27 16  1  0
 15 28  1  0
 28  2  1  0
 28 29  2  0
M  END
> <assay_chembl_id>
CHEMBL1810449

> <assay_description>
Anticancer activity against human LNCAP cells after 24 hrs by MTT assay in presence of testosterone

> <document_journal>
Eur J Med Chem

> <molecule_chembl_id>
CHEMBL1806854

> <standard_value>
880

> <IC50_uM>
0.88

> <Activity>
Yes

> <Canonical_Smiles>
C[C@]1([C@@H](O)c2ccc(Br)cc2)NC(=S)N(c2ccc(C#N)c(C(F)(F)F)c2)C1=O

$$$$

  SciTegic03142313312D

 30 32  0  0  1  0            999 V2000
    3.8929   -3.7562    0.0000 C   0  0
    2.5951   -3.0039    0.0000 C   0  0  2  0  0  0
    2.5973   -1.5031    0.0000 C   0  0  1  0  0  0
    3.8976   -0.7553    0.0000 O   0  0
    1.2990   -0.7500    0.0000 C   0  0
    1.2990    0.7500    0.0000 C   0  0
    0.0000    1.5000    0.0000 C   0  0
   -1.2990    0.7500    0.0000 C   0  0
   -2.5981    1.5000    0.0000 F   0  0
   -1.2990   -0.7500    0.0000 C   0  0
    0.0000   -1.5000    0.0000 C   0  0
    2.4911   -4.4637    0.0000 N   0  0
    1.0234   -4.7733    0.0000 C   0  0
    0.4111   -6.1426    0.0000 S   0  0
    0.2755   -3.4730    0.0000 N   0  0
   -1.2168   -3.3138    0.0000 C   0  0
   -2.1852   -4.4528    0.0000 C   0  0
   -3.6605   -4.1819    0.0000 C   0  0
   -4.1636   -2.7687    0.0000 C   0  0
   -5.6403   -2.5007    0.0000 N   0  3
   -6.6109   -3.6443    0.0000 O   0  0
   -6.1458   -1.0884    0.0000 O   0  5
   -3.1913   -1.6265    0.0000 C   0  0
   -3.6946   -0.2126    0.0000 C   0  0
   -5.1697    0.0593    0.0000 F   0  0
   -2.7219    0.9293    0.0000 F   0  0
   -4.1969    1.2008    0.0000 F   0  0
   -1.7159   -1.8974    0.0000 C   0  0
    1.2809   -2.3599    0.0000 C   0  0
    1.0918   -1.3780    0.0000 O   0  0
  2  1  1  6
  2  3  1  0
  3  4  1  6
  3  5  1  0
  5  6  2  0
  6  7  1  0
  7  8  2  0
  8  9  1  0
  8 10  1  0
 10 11  2  0
 11  5  1  0
  2 12  1  0
 12 13  1  0
 13 14  2  0
 13 15  1  0
 15 16  1  0
 16 17  2  0
 17 18  1  0
 18 19  2  0
 19 20  1  0
 20 21  2  0
 20 22  1  0
 19 23  1  0
 23 24  1  0
 24 25  1  0
 24 26  1  0
 24 27  1  0
 23 28  2  0
 28 16  1  0
 15 29  1  0
 29  2  1  0
 29 30  2  0
M  CHG  2  20   1  22  -1
M  END
> <assay_chembl_id>
CHEMBL1810449

> <assay_description>
Anticancer activity against human LNCAP cells after 24 hrs by MTT assay in presence of testosterone

> <document_journal>
Eur J Med Chem

> <molecule_chembl_id>
CHEMBL1806855

> <standard_value>
33000

> <IC50_uM>
33

> <Activity>
No

> <Canonical_Smiles>
C[C@]1([C@@H](O)c2ccc(F)cc2)NC(=S)N(c2ccc([N+](=O)[O-])c(C(F)(F)F)c2)C1=O

$$$$

  SciTegic03142313312D

 30 32  0  0  1  0            999 V2000
    3.8929   -3.7562    0.0000 C   0  0
    2.5951   -3.0039    0.0000 C   0  0  2  0  0  0
    2.5973   -1.5031    0.0000 C   0  0  1  0  0  0
    3.8976   -0.7553    0.0000 O   0  0
    1.2990   -0.7500    0.0000 C   0  0
    1.2990    0.7500    0.0000 C   0  0
    0.0000    1.5000    0.0000 C   0  0
   -1.2990    0.7500    0.0000 C   0  0
   -2.5981    1.5000    0.0000 Cl  0  0
   -1.2990   -0.7500    0.0000 C   0  0
    0.0000   -1.5000    0.0000 C   0  0
    2.4911   -4.4637    0.0000 N   0  0
    1.0234   -4.7733    0.0000 C   0  0
    0.4111   -6.1426    0.0000 S   0  0
    0.2755   -3.4730    0.0000 N   0  0
   -1.2168   -3.3138    0.0000 C   0  0
   -2.1852   -4.4528    0.0000 C   0  0
   -3.6605   -4.1819    0.0000 C   0  0
   -4.1636   -2.7687    0.0000 C   0  0
   -5.6403   -2.5007    0.0000 N   0  3
   -6.6109   -3.6443    0.0000 O   0  0
   -6.1458   -1.0884    0.0000 O   0  5
   -3.1913   -1.6265    0.0000 C   0  0
   -3.6946   -0.2126    0.0000 C   0  0
   -5.1697    0.0593    0.0000 F   0  0
   -2.7219    0.9293    0.0000 F   0  0
   -4.1969    1.2008    0.0000 F   0  0
   -1.7159   -1.8974    0.0000 C   0  0
    1.2809   -2.3599    0.0000 C   0  0
    1.0918   -1.3780    0.0000 O   0  0
  2  1  1  6
  2  3  1  0
  3  4  1  6
  3  5  1  0
  5  6  2  0
  6  7  1  0
  7  8  2  0
  8  9  1  0
  8 10  1  0
 10 11  2  0
 11  5  1  0
  2 12  1  0
 12 13  1  0
 13 14  2  0
 13 15  1  0
 15 16  1  0
 16 17  2  0
 17 18  1  0
 18 19  2  0
 19 20  1  0
 20 21  2  0
 20 22  1  0
 19 23  1  0
 23 24  1  0
 24 25  1  0
 24 26  1  0
 24 27  1  0
 23 28  2  0
 28 16  1  0
 15 29  1  0
 29  2  1  0
 29 30  2  0
M  CHG  2  20   1  22  -1
M  END
> <assay_chembl_id>
CHEMBL1810449

> <assay_description>
Anticancer activity against human LNCAP cells after 24 hrs by MTT assay in presence of testosterone

> <document_journal>
Eur J Med Chem

> <molecule_chembl_id>
CHEMBL1806856

> <standard_value>
939

> <IC50_uM>
0.939

> <Activity>
Yes

> <Canonical_Smiles>
C[C@]1([C@@H](O)c2ccc(Cl)cc2)NC(=S)N(c2ccc([N+](=O)[O-])c(C(F)(F)F)c2)C1=O

$$$$

  SciTegic03142313312D

 30 32  0  0  1  0            999 V2000
    3.8929   -3.7562    0.0000 C   0  0
    2.5951   -3.0039    0.0000 C   0  0  2  0  0  0
    2.5973   -1.5031    0.0000 C   0  0  1  0  0  0
    3.8976   -0.7553    0.0000 O   0  0
    1.2990   -0.7500    0.0000 C   0  0
    1.2990    0.7500    0.0000 C   0  0
    0.0000    1.5000    0.0000 C   0  0
   -1.2990    0.7500    0.0000 C   0  0
   -2.5981    1.5000    0.0000 Br  0  0
   -1.2990   -0.7500    0.0000 C   0  0
    0.0000   -1.5000    0.0000 C   0  0
    2.4911   -4.4637    0.0000 N   0  0
    1.0234   -4.7733    0.0000 C   0  0
    0.4111   -6.1426    0.0000 S   0  0
    0.2755   -3.4730    0.0000 N   0  0
   -1.2168   -3.3138    0.0000 C   0  0
   -2.1852   -4.4528    0.0000 C   0  0
   -3.6605   -4.1819    0.0000 C   0  0
   -4.1636   -2.7687    0.0000 C   0  0
   -5.6403   -2.5007    0.0000 N   0  3
   -6.6109   -3.6443    0.0000 O   0  0
   -6.1458   -1.0884    0.0000 O   0  5
   -3.1913   -1.6265    0.0000 C   0  0
   -3.6946   -0.2126    0.0000 C   0  0
   -5.1697    0.0593    0.0000 F   0  0
   -2.7219    0.9293    0.0000 F   0  0
   -4.1969    1.2008    0.0000 F   0  0
   -1.7159   -1.8974    0.0000 C   0  0
    1.2809   -2.3599    0.0000 C   0  0
    1.0918   -1.3780    0.0000 O   0  0
  2  1  1  6
  2  3  1  0
  3  4  1  6
  3  5  1  0
  5  6  2  0
  6  7  1  0
  7  8  2  0
  8  9  1  0
  8 10  1  0
 10 11  2  0
 11  5  1  0
  2 12  1  0
 12 13  1  0
 13 14  2  0
 13 15  1  0
 15 16  1  0
 16 17  2  0
 17 18  1  0
 18 19  2  0
 19 20  1  0
 20 21  2  0
 20 22  1  0
 19 23  1  0
 23 24  1  0
 24 25  1  0
 24 26  1  0
 24 27  1  0
 23 28  2  0
 28 16  1  0
 15 29  1  0
 29  2  1  0
 29 30  2  0
M  CHG  2  20   1  22  -1
M  END
> <assay_chembl_id>
CHEMBL1810449

> <assay_description>
Anticancer activity against human LNCAP cells after 24 hrs by MTT assay in presence of testosterone

> <document_journal>
Eur J Med Chem

> <molecule_chembl_id>
CHEMBL1806857

> <standard_value>
73400

> <IC50_uM>
73.4

> <Activity>
No

> <Canonical_Smiles>
C[C@]1([C@@H](O)c2ccc(Br)cc2)NC(=S)N(c2ccc([N+](=O)[O-])c(C(F)(F)F)c2)C1=O

$$$$

  SciTegic03142313312D

 24 26  0  0  0  0            999 V2000
    3.8929   -3.7562    0.0000 C   0  0
    2.5951   -3.0039    0.0000 C   0  0  3  0  0  0
    2.5973   -1.5031    0.0000 C   0  0  3  0  0  0
    3.8976   -0.7553    0.0000 O   0  0
    1.2990   -0.7500    0.0000 C   0  0
    1.2990    0.7500    0.0000 C   0  0
    0.0000    1.5000    0.0000 C   0  0
   -1.2990    0.7500    0.0000 C   0  0
   -2.5981    1.5000    0.0000 F   0  0
   -1.2990   -0.7500    0.0000 C   0  0
    0.0000   -1.5000    0.0000 C   0  0
    1.2809   -2.3599    0.0000 O   0  0
    0.2755   -3.4730    0.0000 C   0  0
   -1.2161   -3.3139    0.0000 S   0  0
    1.0234   -4.7733    0.0000 N   0  0
    0.4108   -6.1433    0.0000 C   0  0
   -1.0606   -6.4078    0.0000 C   0  0
   -1.5681   -7.8193    0.0000 C   0  0
   -0.5994   -8.9646    0.0000 C   0  0
   -1.1069  -10.3762    0.0000 Cl  0  0
    0.8768   -8.6984    0.0000 C   0  0
    1.3843   -7.2868    0.0000 C   0  0
    2.4911   -4.4637    0.0000 C   0  0
    3.6218   -5.4494    0.0000 O   0  0
  2  1  1  4
  2  3  1  0
  3  4  1  4
  3  5  1  0
  5  6  2  0
  6  7  1  0
  7  8  2  0
  8  9  1  0
  8 10  1  0
 10 11  2  0
 11  5  1  0
  2 12  1  0
 12 13  1  0
 13 14  2  0
 13 15  1  0
 15 16  1  0
 16 17  2  0
 17 18  1  0
 18 19  2  0
 19 20  1  0
 19 21  1  0
 21 22  2  0
 22 16  1  0
 15 23  1  0
 23  2  1  0
 23 24  2  0
M  END
> <assay_chembl_id>
CHEMBL1810449

> <assay_description>
Anticancer activity against human LNCAP cells after 24 hrs by MTT assay in presence of testosterone

> <document_journal>
Eur J Med Chem

> <molecule_chembl_id>
CHEMBL1806858

> <standard_value>
100000

> <IC50_uM>
100

> <Activity>
No

> <Canonical_Smiles>
CC1(C(O)c2ccc(F)cc2)OC(=S)N(c2ccc(Cl)cc2)C1=O

$$$$

  SciTegic03142313312D

 24 26  0  0  0  0            999 V2000
    3.8929   -3.7562    0.0000 C   0  0
    2.5951   -3.0039    0.0000 C   0  0  3  0  0  0
    2.5973   -1.5031    0.0000 C   0  0  3  0  0  0
    3.8976   -0.7553    0.0000 O   0  0
    1.2990   -0.7500    0.0000 C   0  0
    1.2990    0.7500    0.0000 C   0  0
    0.0000    1.5000    0.0000 C   0  0
   -1.2990    0.7500    0.0000 C   0  0
   -2.5981    1.5000    0.0000 Br  0  0
   -1.2990   -0.7500    0.0000 C   0  0
    0.0000   -1.5000    0.0000 C   0  0
    1.2809   -2.3599    0.0000 O   0  0
    0.2755   -3.4730    0.0000 C   0  0
   -1.2161   -3.3139    0.0000 S   0  0
    1.0234   -4.7733    0.0000 N   0  0
    0.4108   -6.1433    0.0000 C   0  0
   -1.0606   -6.4078    0.0000 C   0  0
   -1.5681   -7.8193    0.0000 C   0  0
   -0.5994   -8.9646    0.0000 C   0  0
   -1.1069  -10.3762    0.0000 F   0  0
    0.8768   -8.6984    0.0000 C   0  0
    1.3843   -7.2868    0.0000 C   0  0
    2.4911   -4.4637    0.0000 C   0  0
    3.6218   -5.4494    0.0000 O   0  0
  2  1  1  4
  2  3  1  0
  3  4  1  4
  3  5  1  0
  5  6  2  0
  6  7  1  0
  7  8  2  0
  8  9  1  0
  8 10  1  0
 10 11  2  0
 11  5  1  0
  2 12  1  0
 12 13  1  0
 13 14  2  0
 13 15  1  0
 15 16  1  0
 16 17  2  0
 17 18  1  0
 18 19  2  0
 19 20  1  0
 19 21  1  0
 21 22  2  0
 22 16  1  0
 15 23  1  0
 23  2  1  0
 23 24  2  0
M  END
> <assay_chembl_id>
CHEMBL1810449

> <assay_description>
Anticancer activity against human LNCAP cells after 24 hrs by MTT assay in presence of testosterone

> <document_journal>
Eur J Med Chem

> <molecule_chembl_id>
CHEMBL1807011

> <standard_value>
54000

> <IC50_uM>
54

> <Activity>
No

> <Canonical_Smiles>
CC1(C(O)c2ccc(Br)cc2)OC(=S)N(c2ccc(F)cc2)C1=O

$$$$

  SciTegic03142313312D

 28 30  0  0  0  0            999 V2000
    3.8929   -3.7562    0.0000 C   0  0
    2.5951   -3.0039    0.0000 C   0  0  3  0  0  0
    2.5973   -1.5031    0.0000 C   0  0  3  0  0  0
    3.8976   -0.7553    0.0000 O   0  0
    1.2990   -0.7500    0.0000 C   0  0
    1.2990    0.7500    0.0000 C   0  0
    0.0000    1.5000    0.0000 C   0  0
   -1.2990    0.7500    0.0000 C   0  0
   -2.5981    1.5000    0.0000 Cl  0  0
   -1.2990   -0.7500    0.0000 C   0  0
    0.0000   -1.5000    0.0000 C   0  0
    1.2809   -2.3599    0.0000 O   0  0
    0.2755   -3.4730    0.0000 C   0  0
   -1.2161   -3.3139    0.0000 S   0  0
    1.0234   -4.7733    0.0000 N   0  0
    0.4108   -6.1433    0.0000 C   0  0
   -1.0606   -6.4078    0.0000 C   0  0
   -1.5681   -7.8193    0.0000 C   0  0
   -0.5994   -8.9646    0.0000 C   0  0
   -1.1069  -10.3762    0.0000 Cl  0  0
    0.8768   -8.6984    0.0000 C   0  0
    1.8460   -9.8443    0.0000 C   0  0
    1.3394  -11.2561    0.0000 F   0  0
    3.3221   -9.5775    0.0000 F   0  0
    2.8152  -10.9891    0.0000 F   0  0
    1.3843   -7.2868    0.0000 C   0  0
    2.4911   -4.4637    0.0000 C   0  0
    3.6218   -5.4494    0.0000 O   0  0
  2  1  1  4
  2  3  1  0
  3  4  1  4
  3  5  1  0
  5  6  2  0
  6  7  1  0
  7  8  2  0
  8  9  1  0
  8 10  1  0
 10 11  2  0
 11  5  1  0
  2 12  1  0
 12 13  1  0
 13 14  2  0
 13 15  1  0
 15 16  1  0
 16 17  2  0
 17 18  1  0
 18 19  2  0
 19 20  1  0
 19 21  1  0
 21 22  1  0
 22 23  1  0
 22 24  1  0
 22 25  1  0
 21 26  2  0
 26 16  1  0
 15 27  1  0
 27  2  1  0
 27 28  2  0
M  END
> <assay_chembl_id>
CHEMBL1810449

> <assay_description>
Anticancer activity against human LNCAP cells after 24 hrs by MTT assay in presence of testosterone

> <document_journal>
Eur J Med Chem

> <molecule_chembl_id>
CHEMBL1807016

> <standard_value>
84000

> <IC50_uM>
84

> <Activity>
No

> <Canonical_Smiles>
CC1(C(O)c2ccc(Cl)cc2)OC(=S)N(c2ccc(Cl)c(C(F)(F)F)c2)C1=O

$$$$

  SciTegic03142313312D

 28 30  0  0  0  0            999 V2000
    3.8929   -3.7562    0.0000 C   0  0
    2.5951   -3.0039    0.0000 C   0  0  3  0  0  0
    2.5973   -1.5031    0.0000 C   0  0  3  0  0  0
    3.8976   -0.7553    0.0000 O   0  0
    1.2990   -0.7500    0.0000 C   0  0
    1.2990    0.7500    0.0000 C   0  0
    0.0000    1.5000    0.0000 C   0  0
   -1.2990    0.7500    0.0000 C   0  0
   -2.5981    1.5000    0.0000 Br  0  0
   -1.2990   -0.7500    0.0000 C   0  0
    0.0000   -1.5000    0.0000 C   0  0
    1.2809   -2.3599    0.0000 O   0  0
    0.2755   -3.4730    0.0000 C   0  0
   -1.2161   -3.3139    0.0000 S   0  0
    1.0234   -4.7733    0.0000 N   0  0
    0.4108   -6.1433    0.0000 C   0  0
   -1.0606   -6.4078    0.0000 C   0  0
   -1.5681   -7.8193    0.0000 C   0  0
   -0.5994   -8.9646    0.0000 C   0  0
   -1.1069  -10.3762    0.0000 Cl  0  0
    0.8768   -8.6984    0.0000 C   0  0
    1.8460   -9.8443    0.0000 C   0  0
    1.3394  -11.2561    0.0000 F   0  0
    3.3221   -9.5775    0.0000 F   0  0
    2.8152  -10.9891    0.0000 F   0  0
    1.3843   -7.2868    0.0000 C   0  0
    2.4911   -4.4637    0.0000 C   0  0
    3.6218   -5.4494    0.0000 O   0  0
  2  1  1  4
  2  3  1  0
  3  4  1  4
  3  5  1  0
  5  6  2  0
  6  7  1  0
  7  8  2  0
  8  9  1  0
  8 10  1  0
 10 11  2  0
 11  5  1  0
  2 12  1  0
 12 13  1  0
 13 14  2  0
 13 15  1  0
 15 16  1  0
 16 17  2  0
 17 18  1  0
 18 19  2  0
 19 20  1  0
 19 21  1  0
 21 22  1  0
 22 23  1  0
 22 24  1  0
 22 25  1  0
 21 26  2  0
 26 16  1  0
 15 27  1  0
 27  2  1  0
 27 28  2  0
M  END
> <assay_chembl_id>
CHEMBL1810449

> <assay_description>
Anticancer activity against human LNCAP cells after 24 hrs by MTT assay in presence of testosterone

> <document_journal>
Eur J Med Chem

> <molecule_chembl_id>
CHEMBL1807017

> <standard_value>
70000

> <IC50_uM>
70

> <Activity>
No

> <Canonical_Smiles>
CC1(C(O)c2ccc(Br)cc2)OC(=S)N(c2ccc(Cl)c(C(F)(F)F)c2)C1=O

$$$$

  SciTegic03142313312D

 24 27  0  0  1  0            999 V2000
    2.5981   -1.5000    0.0000 N   0  0
    1.2990   -0.7500    0.0000 C   0  0
    1.2990    0.7500    0.0000 N   0  0
    0.0000    1.5000    0.0000 C   0  0
   -1.2990    0.7500    0.0000 N   0  0
   -1.2990   -0.7500    0.0000 C   0  0
    0.0000   -1.5000    0.0000 C   0  0
   -0.3114   -2.9665    0.0000 C   0  0
    0.6929   -4.0817    0.0000 C   0  0
    2.1742   -4.0242    0.0000 C   0  0
    2.6753   -5.4380    0.0000 C   0  0
    1.4855   -6.3514    0.0000 C   0  0
    0.2491   -5.5022    0.0000 S   0  0
   -1.8032   -3.1233    0.0000 C   0  0
   -2.4133   -1.7530    0.0000 N   0  0
   -3.8813   -1.4408    0.0000 C   0  0  2  0  0  0
   -4.3570   -0.0307    0.0000 O   0  0
   -5.8565   -0.0702    0.0000 C   0  0  2  0  0  0
   -6.7662    1.1202    0.0000 C   0  0
   -6.1904    2.5053    0.0000 O   0  0
   -6.2823   -1.5085    0.0000 C   0  0  1  0  0  0
   -7.6962   -2.0094    0.0000 O   0  0
   -5.0460   -2.3579    0.0000 C   0  0  1  0  0  0
   -4.9973   -3.8571    0.0000 O   0  0
  1  2  1  0
  2  3  2  0
  3  4  1  0
  4  5  2  0
  5  6  1  0
  6  7  2  0
  7  2  1  0
  7  8  1  0
  8  9  1  0
  9 10  2  0
 10 11  1  0
 11 12  2  0
 12 13  1  0
 13  9  1  0
  8 14  2  0
 14 15  1  0
 15  6  1  0
 16 15  1  1
 16 17  1  0
 17 18  1  0
 18 19  1  1
 19 20  1  0
 18 21  1  0
 21 22  1  6
 21 23  1  0
 23 16  1  0
 23 24  1  6
M  END
> <assay_chembl_id>
CHEMBL1817281

> <assay_description>
Cytotoxicity against human LNCAP cells after 3 days by MTT assay

> <document_journal>
J Med Chem

> <molecule_chembl_id>
CHEMBL1814768

> <standard_value>
18

> <IC50_uM>
0.018

> <Activity>
Yes

> <Canonical_Smiles>
Nc1ncnc2c1c(-c1cccs1)cn2[C@@H]1O[C@H](CO)[C@@H](O)[C@H]1O

$$$$

  SciTegic03142313312D

 24 27  0  0  1  0            999 V2000
    2.5981   -1.5000    0.0000 N   0  0
    1.2990   -0.7500    0.0000 C   0  0
    1.2990    0.7500    0.0000 N   0  0
    0.0000    1.5000    0.0000 C   0  0
   -1.2990    0.7500    0.0000 N   0  0
   -1.2990   -0.7500    0.0000 C   0  0
    0.0000   -1.5000    0.0000 C   0  0
   -0.3114   -2.9665    0.0000 C   0  0
    0.6929   -4.0817    0.0000 C   0  0
    2.1742   -4.0242    0.0000 C   0  0
    2.6753   -5.4380    0.0000 C   0  0
    1.4855   -6.3514    0.0000 O   0  0
    0.2491   -5.5022    0.0000 C   0  0
   -1.8032   -3.1233    0.0000 C   0  0
   -2.4133   -1.7530    0.0000 N   0  0
   -3.8813   -1.4408    0.0000 C   0  0  2  0  0  0
   -4.3570   -0.0307    0.0000 O   0  0
   -5.8565   -0.0702    0.0000 C   0  0  2  0  0  0
   -6.7662    1.1202    0.0000 C   0  0
   -6.1904    2.5053    0.0000 O   0  0
   -6.2823   -1.5085    0.0000 C   0  0  1  0  0  0
   -7.6962   -2.0094    0.0000 O   0  0
   -5.0460   -2.3579    0.0000 C   0  0  1  0  0  0
   -4.9973   -3.8571    0.0000 O   0  0
  1  2  1  0
  2  3  2  0
  3  4  1  0
  4  5  2  0
  5  6  1  0
  6  7  2  0
  7  2  1  0
  7  8  1  0
  8  9  1  0
  9 10  1  0
 10 11  2  0
 11 12  1  0
 12 13  1  0
 13  9  2  0
  8 14  2  0
 14 15  1  0
 15  6  1  0
 16 15  1  1
 16 17  1  0
 17 18  1  0
 18 19  1  1
 19 20  1  0
 18 21  1  0
 21 22  1  6
 21 23  1  0
 23 16  1  0
 23 24  1  6
M  END
> <assay_chembl_id>
CHEMBL1817281

> <assay_description>
Cytotoxicity against human LNCAP cells after 3 days by MTT assay

> <document_journal>
J Med Chem

> <molecule_chembl_id>
CHEMBL1814769

> <standard_value>
112

> <IC50_uM>
0.112

> <Activity>
Yes

> <Canonical_Smiles>
Nc1ncnc2c1c(-c1ccoc1)cn2[C@@H]1O[C@H](CO)[C@@H](O)[C@H]1O

$$$$

  SciTegic03142313312D

 24 27  0  0  1  0            999 V2000
    2.5981   -1.5000    0.0000 N   0  0
    1.2990   -0.7500    0.0000 C   0  0
    1.2990    0.7500    0.0000 N   0  0
    0.0000    1.5000    0.0000 C   0  0
   -1.2990    0.7500    0.0000 N   0  0
   -1.2990   -0.7500    0.0000 C   0  0
    0.0000   -1.5000    0.0000 C   0  0
   -0.3114   -2.9665    0.0000 C   0  0
    0.6929   -4.0817    0.0000 C   0  0
    2.1742   -4.0242    0.0000 C   0  0
    2.6753   -5.4380    0.0000 C   0  0
    1.4855   -6.3514    0.0000 S   0  0
    0.2491   -5.5022    0.0000 C   0  0
   -1.8032   -3.1233    0.0000 C   0  0
   -2.4133   -1.7530    0.0000 N   0  0
   -3.8813   -1.4408    0.0000 C   0  0  2  0  0  0
   -4.3570   -0.0307    0.0000 O   0  0
   -5.8565   -0.0702    0.0000 C   0  0  2  0  0  0
   -6.7662    1.1202    0.0000 C   0  0
   -6.1904    2.5053    0.0000 O   0  0
   -6.2823   -1.5085    0.0000 C   0  0  1  0  0  0
   -7.6962   -2.0094    0.0000 O   0  0
   -5.0460   -2.3579    0.0000 C   0  0  1  0  0  0
   -4.9973   -3.8571    0.0000 O   0  0
  1  2  1  0
  2  3  2  0
  3  4  1  0
  4  5  2  0
  5  6  1  0
  6  7  2  0
  7  2  1  0
  7  8  1  0
  8  9  1  0
  9 10  1  0
 10 11  2  0
 11 12  1  0
 12 13  1  0
 13  9  2  0
  8 14  2  0
 14 15  1  0
 15  6  1  0
 16 15  1  1
 16 17  1  0
 17 18  1  0
 18 19  1  1
 19 20  1  0
 18 21  1  0
 21 22  1  6
 21 23  1  0
 23 16  1  0
 23 24  1  6
M  END
> <assay_chembl_id>
CHEMBL1817281

> <assay_description>
Cytotoxicity against human LNCAP cells after 3 days by MTT assay

> <document_journal>
J Med Chem

> <molecule_chembl_id>
CHEMBL1814770

> <standard_value>
68

> <IC50_uM>
0.068

> <Activity>
Yes

> <Canonical_Smiles>
Nc1ncnc2c1c(-c1ccsc1)cn2[C@@H]1O[C@H](CO)[C@@H](O)[C@H]1O

$$$$

  SciTegic03142313312D

 24 27  0  0  1  0            999 V2000
    2.5981   -1.5000    0.0000 N   0  0
    1.2990   -0.7500    0.0000 C   0  0
    1.2990    0.7500    0.0000 N   0  0
    0.0000    1.5000    0.0000 C   0  0
   -1.2990    0.7500    0.0000 N   0  0
   -1.2990   -0.7500    0.0000 C   0  0
    0.0000   -1.5000    0.0000 C   0  0
   -0.3114   -2.9665    0.0000 C   0  0
    0.6929   -4.0817    0.0000 C   0  0
    2.1742   -4.0242    0.0000 C   0  0
    2.6753   -5.4380    0.0000 C   0  0
    1.4855   -6.3514    0.0000 N   0  0
    0.2491   -5.5022    0.0000 C   0  0
   -1.8032   -3.1233    0.0000 C   0  0
   -2.4133   -1.7530    0.0000 N   0  0
   -3.8813   -1.4408    0.0000 C   0  0  2  0  0  0
   -4.3570   -0.0307    0.0000 O   0  0
   -5.8565   -0.0702    0.0000 C   0  0  2  0  0  0
   -6.7662    1.1202    0.0000 C   0  0
   -6.1904    2.5053    0.0000 O   0  0
   -6.2823   -1.5085    0.0000 C   0  0  1  0  0  0
   -7.6962   -2.0094    0.0000 O   0  0
   -5.0460   -2.3579    0.0000 C   0  0  1  0  0  0
   -4.9973   -3.8571    0.0000 O   0  0
  1  2  1  0
  2  3  2  0
  3  4  1  0
  4  5  2  0
  5  6  1  0
  6  7  2  0
  7  2  1  0
  7  8  1  0
  8  9  1  0
  9 10  1  0
 10 11  2  0
 11 12  1  0
 12 13  1  0
 13  9  2  0
  8 14  2  0
 14 15  1  0
 15  6  1  0
 16 15  1  1
 16 17  1  0
 17 18  1  0
 18 19  1  1
 19 20  1  0
 18 21  1  0
 21 22  1  6
 21 23  1  0
 23 16  1  0
 23 24  1  6
M  END
> <assay_chembl_id>
CHEMBL1817281

> <assay_description>
Cytotoxicity against human LNCAP cells after 3 days by MTT assay

> <document_journal>
J Med Chem

> <molecule_chembl_id>
CHEMBL1814773

> <standard_value>
21

> <IC50_uM>
0.021

> <Activity>
Yes

> <Canonical_Smiles>
Nc1ncnc2c1c(-c1cc[nH]c1)cn2[C@@H]1O[C@H](CO)[C@@H](O)[C@H]1O

$$$$

  SciTegic03142313312D

 18 19  0  0  1  0            999 V2000
    2.5981   -1.5000    0.0000 N   0  0
    1.2990   -0.7500    0.0000 C   0  0
    1.2990    0.7500    0.0000 C   0  0
    0.0000    1.5000    0.0000 C   0  0
   -1.2990    0.7500    0.0000 N   0  0
   -2.5987    1.5004    0.0000 C   0  0  2  0  0  0
   -3.9492    0.8772    0.0000 O   0  0
   -4.9546    1.9903    0.0000 C   0  0  2  0  0  0
   -6.4441    1.8282    0.0000 C   0  0
   -7.0500    0.4561    0.0000 O   0  0
   -4.2067    3.2905    0.0000 C   0  0  1  0  0  0
   -4.8190    4.6599    0.0000 O   0  0
   -2.7390    2.9810    0.0000 C   0  0
   -1.3214    2.4906    0.0000 F   0  0
   -3.0655    4.4450    0.0000 F   0  0
   -1.2990   -0.7500    0.0000 C   0  0
   -2.5981   -1.5000    0.0000 O   0  0
    0.0000   -1.5000    0.0000 N   0  0
  1  2  1  0
  2  3  1  0
  3  4  2  0
  4  5  1  0
  6  5  1  6
  6  7  1  0
  7  8  1  0
  8  9  1  6
  9 10  1  0
  8 11  1  0
 11 12  1  1
 11 13  1  0
 13  6  1  0
 13 14  1  0
 13 15  1  0
  5 16  1  0
 16 17  2  0
 16 18  1  0
 18  2  2  0
M  END
> <assay_chembl_id>
CHEMBL1817281

> <assay_description>
Cytotoxicity against human LNCAP cells after 3 days by MTT assay

> <document_journal>
J Med Chem

> <molecule_chembl_id>
CHEMBL888

> <standard_value>
512

> <IC50_uM>
0.512

> <Activity>
Yes

> <Canonical_Smiles>
Nc1ccn([C@@H]2O[C@H](CO)[C@@H](O)C2(F)F)c(=O)n1

$$$$

  SciTegic03142313312D

 25 27  0  0  0  0            999 V2000
    3.8983   -0.7459    0.0000 C   0  0
    2.6003   -1.4977    0.0000 O   0  0
    1.2990   -0.7500    0.0000 C   0  0
    1.2990    0.7500    0.0000 C   0  0
    0.0000    1.5000    0.0000 C   0  0
   -0.0031    3.0008    0.0000 C   0  0
    1.2946    3.7531    0.0000 O   0  0
   -1.3039    3.7494    0.0000 C   0  0
   -1.4470    5.2297    0.0000 C   0  0
   -2.9153    5.5365    0.0000 N   0  0
   -3.6607    4.2349    0.0000 C   0  0
   -5.1527    4.0728    0.0000 C   0  0
   -6.1233    5.2100    0.0000 C   0  0
   -7.5981    4.9362    0.0000 C   0  0
   -8.0984    3.5221    0.0000 C   0  0
   -9.5732    3.2484    0.0000 C   0  0
   -7.1240    2.3818    0.0000 C   0  0
   -5.6491    2.6555    0.0000 C   0  0
   -2.6532    3.1236    0.0000 N   0  0
   -1.2990    0.7500    0.0000 C   0  0
   -1.2990   -0.7500    0.0000 C   0  0
   -2.6003   -1.4978    0.0000 O   0  0
   -3.8983   -0.7459    0.0000 C   0  0
    0.0000   -1.5000    0.0000 C   0  0
    0.0000   -3.0000    0.0000 O   0  0
  1  2  1  0
  2  3  1  0
  3  4  2  0
  4  5  1  0
  5  6  1  0
  6  7  2  0
  6  8  1  0
  8  9  2  0
  9 10  1  0
 10 11  1  0
 11 12  1  0
 12 13  2  0
 13 14  1  0
 14 15  2  0
 15 16  1  0
 15 17  1  0
 17 18  2  0
 18 12  1  0
 11 19  2  0
 19  8  1  0
  5 20  2  0
 20 21  1  0
 21 22  1  0
 22 23  1  0
 21 24  2  0
 24  3  1  0
 24 25  1  0
M  END
> <assay_chembl_id>
CHEMBL1816399

> <assay_description>
Antiproliferative activity against human LNCAP cells after 96 hrs by sulforhodamine B assay

> <document_journal>
Bioorg Med Chem

> <molecule_chembl_id>
CHEMBL1813152

> <standard_value>
130

> <IC50_uM>
0.13

> <Activity>
Yes

> <Canonical_Smiles>
COc1cc(C(=O)c2c[nH]c(-c3ccc(C)cc3)n2)cc(OC)c1O

$$$$

  SciTegic03142313312D

 25 27  0  0  0  0            999 V2000
    3.8983   -0.7459    0.0000 C   0  0
    2.6003   -1.4977    0.0000 O   0  0
    1.2990   -0.7500    0.0000 C   0  0
    1.2990    0.7500    0.0000 C   0  0
    0.0000    1.5000    0.0000 C   0  0
   -0.0031    3.0008    0.0000 C   0  0
    1.2946    3.7531    0.0000 O   0  0
   -1.3039    3.7494    0.0000 C   0  0
   -1.4470    5.2297    0.0000 C   0  0
   -2.9153    5.5365    0.0000 N   0  0
   -3.6607    4.2349    0.0000 C   0  0
   -5.1527    4.0728    0.0000 C   0  0
   -6.1233    5.2100    0.0000 C   0  0
   -7.5981    4.9362    0.0000 C   0  0
   -8.0984    3.5221    0.0000 C   0  0
   -9.5732    3.2484    0.0000 Cl  0  0
   -7.1240    2.3818    0.0000 C   0  0
   -5.6491    2.6555    0.0000 C   0  0
   -2.6532    3.1236    0.0000 N   0  0
   -1.2990    0.7500    0.0000 C   0  0
   -1.2990   -0.7500    0.0000 C   0  0
   -2.6003   -1.4978    0.0000 O   0  0
   -3.8983   -0.7459    0.0000 C   0  0
    0.0000   -1.5000    0.0000 C   0  0
    0.0000   -3.0000    0.0000 O   0  0
  1  2  1  0
  2  3  1  0
  3  4  2  0
  4  5  1  0
  5  6  1  0
  6  7  2  0
  6  8  1  0
  8  9  2  0
  9 10  1  0
 10 11  1  0
 11 12  1  0
 12 13  2  0
 13 14  1  0
 14 15  2  0
 15 16  1  0
 15 17  1  0
 17 18  2  0
 18 12  1  0
 11 19  2  0
 19  8  1  0
  5 20  2  0
 20 21  1  0
 21 22  1  0
 22 23  1  0
 21 24  2  0
 24  3  1  0
 24 25  1  0
M  END
> <assay_chembl_id>
CHEMBL1816399

> <assay_description>
Antiproliferative activity against human LNCAP cells after 96 hrs by sulforhodamine B assay

> <document_journal>
Bioorg Med Chem

> <molecule_chembl_id>
CHEMBL1813153

> <standard_value>
550

> <IC50_uM>
0.55

> <Activity>
Yes

> <Canonical_Smiles>
COc1cc(C(=O)c2c[nH]c(-c3ccc(Cl)cc3)n2)cc(OC)c1O

$$$$

  SciTegic03142313312D

 33 36  0  0  0  0            999 V2000
    3.8983   -0.7459    0.0000 C   0  0
    2.6003   -1.4977    0.0000 O   0  0
    1.2990   -0.7500    0.0000 C   0  0
    1.2990    0.7500    0.0000 C   0  0
    0.0000    1.5000    0.0000 C   0  0
   -0.0031    3.0008    0.0000 C   0  0
    1.2946    3.7531    0.0000 O   0  0
   -1.3039    3.7494    0.0000 C   0  0
   -1.4470    5.2297    0.0000 C   0  0
   -2.9153    5.5365    0.0000 N   0  0
   -3.5266    6.9044    0.0000 C   0  0
   -2.6469    8.1204    0.0000 C   0  0
   -3.2569    9.4907    0.0000 C   0  0
   -2.3753   10.7043    0.0000 C   0  0
   -0.8835   10.5475    0.0000 C   0  0
   -0.2734    9.1772    0.0000 C   0  0
   -1.1550    7.9636    0.0000 C   0  0
   -3.6607    4.2349    0.0000 C   0  0
   -5.1527    4.0728    0.0000 C   0  0
   -6.1233    5.2100    0.0000 C   0  0
   -7.5981    4.9362    0.0000 C   0  0
   -8.0984    3.5221    0.0000 C   0  0
   -9.5732    3.2484    0.0000 C   0  0
   -7.1240    2.3818    0.0000 C   0  0
   -5.6491    2.6555    0.0000 C   0  0
   -2.6532    3.1236    0.0000 N   0  0
   -1.2990    0.7500    0.0000 C   0  0
   -1.2990   -0.7500    0.0000 C   0  0
   -2.6003   -1.4978    0.0000 O   0  0
   -3.8983   -0.7459    0.0000 C   0  0
    0.0000   -1.5000    0.0000 C   0  0
    0.0031   -3.0008    0.0000 O   0  0
    1.3032   -3.7490    0.0000 C   0  0
  1  2  1  0
  2  3  1  0
  3  4  2  0
  4  5  1  0
  5  6  1  0
  6  7  2  0
  6  8  1  0
  8  9  2  0
  9 10  1  0
 10 11  1  0
 11 12  1  0
 12 13  2  0
 13 14  1  0
 14 15  2  0
 15 16  1  0
 16 17  2  0
 17 12  1  0
 10 18  1  0
 18 19  1  0
 19 20  2  0
 20 21  1  0
 21 22  2  0
 22 23  1  0
 22 24  1  0
 24 25  2  0
 25 19  1  0
 18 26  2  0
 26  8  1  0
  5 27  2  0
 27 28  1  0
 28 29  1  0
 29 30  1  0
 28 31  2  0
 31  3  1  0
 31 32  1  0
 32 33  1  0
M  END
> <assay_chembl_id>
CHEMBL1816399

> <assay_description>
Antiproliferative activity against human LNCAP cells after 96 hrs by sulforhodamine B assay

> <document_journal>
Bioorg Med Chem

> <molecule_chembl_id>
CHEMBL1813154

> <standard_value>
680

> <IC50_uM>
0.68

> <Activity>
Yes

> <Canonical_Smiles>
COc1cc(C(=O)c2cn(Cc3ccccc3)c(-c3ccc(C)cc3)n2)cc(OC)c1OC

$$$$

  SciTegic03142313312D

 27 29  0  0  0  0            999 V2000
    3.8983   -0.7459    0.0000 C   0  0
    2.6003   -1.4977    0.0000 O   0  0
    1.2990   -0.7500    0.0000 C   0  0
    1.2990    0.7500    0.0000 C   0  0
    0.0000    1.5000    0.0000 C   0  0
   -0.0031    3.0008    0.0000 C   0  0
    1.2946    3.7531    0.0000 O   0  0
   -1.3039    3.7494    0.0000 C   0  0
   -1.4470    5.2297    0.0000 C   0  0
   -2.9153    5.5365    0.0000 N   0  0
   -3.5301    6.9047    0.0000 C   0  0
   -3.6607    4.2349    0.0000 C   0  0
   -5.1527    4.0728    0.0000 C   0  0
   -6.1233    5.2100    0.0000 C   0  0
   -7.5981    4.9362    0.0000 C   0  0
   -8.0984    3.5221    0.0000 C   0  0
   -9.5732    3.2484    0.0000 C   0  0
   -7.1240    2.3818    0.0000 C   0  0
   -5.6491    2.6555    0.0000 C   0  0
   -2.6532    3.1236    0.0000 N   0  0
   -1.2990    0.7500    0.0000 C   0  0
   -1.2990   -0.7500    0.0000 C   0  0
   -2.6003   -1.4978    0.0000 O   0  0
   -3.8983   -0.7459    0.0000 C   0  0
    0.0000   -1.5000    0.0000 C   0  0
    0.0031   -3.0008    0.0000 O   0  0
    1.3032   -3.7490    0.0000 C   0  0
  1  2  1  0
  2  3  1  0
  3  4  2  0
  4  5  1  0
  5  6  1  0
  6  7  2  0
  6  8  1  0
  8  9  2  0
  9 10  1  0
 10 11  1  0
 10 12  1  0
 12 13  1  0
 13 14  2  0
 14 15  1  0
 15 16  2  0
 16 17  1  0
 16 18  1  0
 18 19  2  0
 19 13  1  0
 12 20  2  0
 20  8  1  0
  5 21  2  0
 21 22  1  0
 22 23  1  0
 23 24  1  0
 22 25  2  0
 25  3  1  0
 25 26  1  0
 26 27  1  0
M  END
> <assay_chembl_id>
CHEMBL1816399

> <assay_description>
Antiproliferative activity against human LNCAP cells after 96 hrs by sulforhodamine B assay

> <document_journal>
Bioorg Med Chem

> <molecule_chembl_id>
CHEMBL1813155

> <standard_value>
30

> <IC50_uM>
0.03

> <Activity>
Yes

> <Canonical_Smiles>
COc1cc(C(=O)c2cn(C)c(-c3ccc(C)cc3)n2)cc(OC)c1OC

$$$$

  SciTegic03142313312D

 34 37  0  0  0  0            999 V2000
    2.5951   -3.0031    0.0000 C   0  0
    2.5973   -1.5031    0.0000 O   0  0
    1.2990   -0.7500    0.0000 C   0  0
    1.2990    0.7500    0.0000 C   0  0
    0.0000    1.5000    0.0000 C   0  0
   -1.2990    0.7500    0.0000 C   0  0
   -2.5988    1.5004    0.0000 S   0  0
   -3.8976    0.7500    0.0000 O   0  0
   -2.5986    0.0004    0.0000 O   0  0
   -2.5998    3.0012    0.0000 N   0  0
   -3.8138    3.8602    0.0000 C   0  0
   -3.3512    5.2871    0.0000 C   0  0
   -4.2301    6.5004    0.0000 C   0  0
   -5.7221    6.3453    0.0000 O   0  0
   -3.6186    7.8710    0.0000 C   0  0
   -4.4967    9.0871    0.0000 C   0  0
   -3.8827   10.4557    0.0000 C   0  0
   -2.3905   10.6083    0.0000 C   0  0
   -1.7765   11.9768    0.0000 F   0  0
   -1.5123    9.3922    0.0000 C   0  0
   -2.1263    8.0237    0.0000 C   0  0
   -1.8512    5.2880    0.0000 N   0  0
   -1.3868    3.8617    0.0000 C   0  0
    0.0380    3.3904    0.0000 C   0  0
    0.4554    1.9551    0.0000 C   0  0
    1.9124    1.5985    0.0000 C   0  0
    2.9497    2.6821    0.0000 C   0  0
    4.4083    2.3284    0.0000 N   0  0
    5.4440    3.4134    0.0000 C   0  0
    4.8305    0.8890    0.0000 C   0  0
    2.5300    4.1222    0.0000 C   0  0
    1.0729    4.4787    0.0000 C   0  0
   -1.2990   -0.7500    0.0000 C   0  0
    0.0000   -1.5000    0.0000 C   0  0
  1  2  1  0
  2  3  1  0
  3  4  2  0
  4  5  1  0
  5  6  2  0
  6  7  1  0
  7  8  2  0
  7  9  2  0
  7 10  1  0
 10 11  1  0
 11 12  2  0
 12 13  1  0
 13 14  2  0
 13 15  1  0
 15 16  2  0
 16 17  1  0
 17 18  2  0
 18 19  1  0
 18 20  1  0
 20 21  2  0
 21 15  1  0
 12 22  1  0
 22 23  2  0
 23 10  1  0
 23 24  1  0
 24 25  2  0
 25 26  1  0
 26 27  2  0
 27 28  1  0
 28 29  1  0
 28 30  1  0
 27 31  1  0
 31 32  2  0
 32 24  1  0
  6 33  1  0
 33 34  2  0
 34  3  1  0
M  END
> <assay_chembl_id>
CHEMBL1816399

> <assay_description>
Antiproliferative activity against human LNCAP cells after 96 hrs by sulforhodamine B assay

> <document_journal>
Bioorg Med Chem

> <molecule_chembl_id>
CHEMBL1813157

> <standard_value>
70

> <IC50_uM>
0.07

> <Activity>
Yes

> <Canonical_Smiles>
COc1ccc(S(=O)(=O)n2cc(C(=O)c3ccc(F)cc3)nc2-c2ccc(N(C)C)cc2)cc1

$$$$

  SciTegic03142313312D

 26 28  0  0  0  0            999 V2000
    3.8983   -0.7459    0.0000 C   0  0
    2.6003   -1.4977    0.0000 O   0  0
    1.2990   -0.7500    0.0000 C   0  0
    1.2990    0.7500    0.0000 C   0  0
    0.0000    1.5000    0.0000 C   0  0
   -0.0031    3.0008    0.0000 C   0  0
    1.2946    3.7531    0.0000 O   0  0
   -1.3039    3.7494    0.0000 C   0  0
   -1.4470    5.2297    0.0000 C   0  0
   -2.9153    5.5365    0.0000 N   0  0
   -3.6607    4.2349    0.0000 C   0  0
   -5.1527    4.0728    0.0000 C   0  0
   -6.1233    5.2100    0.0000 C   0  0
   -7.5981    4.9362    0.0000 C   0  0
   -8.0984    3.5221    0.0000 C   0  0
   -9.5732    3.2484    0.0000 Br  0  0
   -7.1240    2.3818    0.0000 C   0  0
   -5.6491    2.6555    0.0000 C   0  0
   -2.6532    3.1236    0.0000 N   0  0
   -1.2990    0.7500    0.0000 C   0  0
   -1.2990   -0.7500    0.0000 C   0  0
   -2.6003   -1.4978    0.0000 O   0  0
   -3.8983   -0.7459    0.0000 C   0  0
    0.0000   -1.5000    0.0000 C   0  0
    0.0031   -3.0008    0.0000 O   0  0
    1.3032   -3.7490    0.0000 C   0  0
  1  2  1  0
  2  3  1  0
  3  4  2  0
  4  5  1  0
  5  6  1  0
  6  7  2  0
  6  8  1  0
  8  9  2  0
  9 10  1  0
 10 11  1  0
 11 12  1  0
 12 13  2  0
 13 14  1  0
 14 15  2  0
 15 16  1  0
 15 17  1  0
 17 18  2  0
 18 12  1  0
 11 19  2  0
 19  8  1  0
  5 20  2  0
 20 21  1  0
 21 22  1  0
 22 23  1  0
 21 24  2  0
 24  3  1  0
 24 25  1  0
 25 26  1  0
M  END
> <assay_chembl_id>
CHEMBL1816399

> <assay_description>
Antiproliferative activity against human LNCAP cells after 96 hrs by sulforhodamine B assay

> <document_journal>
Bioorg Med Chem

> <molecule_chembl_id>
CHEMBL1813158

> <standard_value>
30

> <IC50_uM>
0.03

> <Activity>
Yes

> <Canonical_Smiles>
COc1cc(C(=O)c2c[nH]c(-c3ccc(Br)cc3)n2)cc(OC)c1OC

$$$$

  SciTegic03142313312D

 25 27  0  0  0  0            999 V2000
    2.5951   -3.0031    0.0000 C   0  0
    2.5973   -1.5031    0.0000 O   0  0
    1.2990   -0.7500    0.0000 C   0  0
    1.2990    0.7500    0.0000 C   0  0
    0.0000    1.5000    0.0000 C   0  0
   -1.2990    0.7500    0.0000 C   0  0
   -2.7248    1.2135    0.0000 N   0  0
   -3.6065    0.0000    0.0000 C   0  0
   -5.1047   -0.0031    0.0000 C   0  0
   -5.8570    1.2946    0.0000 O   0  0
   -5.8532   -1.3040    0.0000 C   0  0
   -7.3533   -1.3093    0.0000 C   0  0
   -8.0987   -2.6109    0.0000 C   0  0
   -9.5996   -2.6131    0.0000 O   0  0
  -10.3522   -1.3156    0.0000 C   0  0
   -7.3442   -3.9074    0.0000 C   0  0
   -8.0874   -5.2113    0.0000 O   0  0
   -7.3310   -6.5066    0.0000 C   0  0
   -5.8442   -3.9021    0.0000 C   0  0
   -5.0866   -5.1977    0.0000 O   0  0
   -3.5866   -5.1904    0.0000 C   0  0
   -5.0987   -2.6005    0.0000 C   0  0
   -2.7248   -1.2135    0.0000 C   0  0
   -1.2990   -0.7500    0.0000 C   0  0
    0.0000   -1.5000    0.0000 C   0  0
  1  2  1  0
  2  3  1  0
  3  4  2  0
  4  5  1  0
  5  6  2  0
  6  7  1  0
  7  8  1  0
  8  9  1  0
  9 10  2  0
  9 11  1  0
 11 12  2  0
 12 13  1  0
 13 14  1  0
 14 15  1  0
 13 16  2  0
 16 17  1  0
 17 18  1  0
 16 19  1  0
 19 20  1  0
 20 21  1  0
 19 22  2  0
 22 11  1  0
  8 23  2  0
 23 24  1  0
 24  6  1  0
 24 25  2  0
 25  3  1  0
M  END
> <assay_chembl_id>
CHEMBL1816399

> <assay_description>
Antiproliferative activity against human LNCAP cells after 96 hrs by sulforhodamine B assay

> <document_journal>
Bioorg Med Chem

> <molecule_chembl_id>
CHEMBL140681

> <standard_value>
50

> <IC50_uM>
0.05

> <Activity>
Yes

> <Canonical_Smiles>
COc1ccc2[nH]c(C(=O)c3cc(OC)c(OC)c(OC)c3)cc2c1

$$$$

  SciTegic03142313312D

 33 35  0  0  1  0            999 V2000
    3.8983   -0.7459    0.0000 C   0  0
    2.6003   -1.4977    0.0000 O   0  0
    1.2990   -0.7500    0.0000 C   0  0
    1.2990    0.7500    0.0000 C   0  0
    0.0000    1.5000    0.0000 C   0  0
   -0.0031    3.0008    0.0000 C   0  0
    1.2946    3.7531    0.0000 O   0  0
   -1.3039    3.7494    0.0000 C   0  0  2  0  0  0
   -1.4470    5.2297    0.0000 C   0  0
   -2.9153    5.5365    0.0000 S   0  0
   -3.6607    4.2349    0.0000 C   0  0
   -5.1527    4.0728    0.0000 C   0  0
   -6.1233    5.2100    0.0000 C   0  0
   -7.5981    4.9362    0.0000 C   0  0
   -8.0984    3.5221    0.0000 C   0  0
   -9.5735    3.2452    0.0000 O   0  0
  -10.0721    1.8296    0.0000 Si  0  0
   -9.0956    0.6910    0.0000 C   0  0
   -8.5977    2.1057    0.0000 C   0  0
  -11.5472    1.5527    0.0000 C   0  0
  -12.0455    0.1379    0.0000 C   0  0
  -12.5236    2.6914    0.0000 C   0  0
  -13.0215    1.2766    0.0000 C   0  0
   -7.1240    2.3818    0.0000 C   0  0
   -5.6491    2.6555    0.0000 C   0  0
   -2.6532    3.1236    0.0000 N   0  0
   -1.2990    0.7500    0.0000 C   0  0
   -1.2990   -0.7500    0.0000 C   0  0
   -2.6003   -1.4978    0.0000 O   0  0
   -3.8983   -0.7459    0.0000 C   0  0
    0.0000   -1.5000    0.0000 C   0  0
    0.0031   -3.0008    0.0000 O   0  0
    1.3032   -3.7490    0.0000 C   0  0
  1  2  1  0
  2  3  1  0
  3  4  2  0
  4  5  1  0
  5  6  1  0
  6  7  2  0
  8  6  1  1
  8  9  1  0
  9 10  1  0
 10 11  1  0
 11 12  1  0
 12 13  2  0
 13 14  1  0
 14 15  2  0
 15 16  1  0
 16 17  1  0
 17 18  1  0
 17 19  1  0
 17 20  1  0
 20 21  1  0
 20 22  1  0
 20 23  1  0
 15 24  1  0
 24 25  2  0
 25 12  1  0
 11 26  2  0
 26  8  1  0
  5 27  2  0
 27 28  1  0
 28 29  1  0
 29 30  1  0
 28 31  2  0
 31  3  1  0
 31 32  1  0
 32 33  1  0
M  END
> <assay_chembl_id>
CHEMBL1832179

> <assay_description>
Anticancer activity against human LNCAP cells after 96 hrs by SRB assay

> <document_journal>
J Med Chem

> <molecule_chembl_id>
CHEMBL1830229

> <standard_value>
549

> <IC50_uM>
0.549

> <Activity>
Yes

> <Canonical_Smiles>
COc1cc(C(=O)[C@@H]2CSC(c3ccc(O[Si](C)(C)C(C)(C)C)cc3)=N2)cc(OC)c1OC

$$$$

  SciTegic03142313312D

 27 29  0  0  0  0            999 V2000
    3.8983   -0.7459    0.0000 C   0  0
    2.6003   -1.4977    0.0000 O   0  0
    1.2990   -0.7500    0.0000 C   0  0
    1.2990    0.7500    0.0000 C   0  0
    0.0000    1.5000    0.0000 C   0  0
   -0.0044    3.0009    0.0000 C   0  0
   -1.3050    3.7498    0.0000 C   0  0
   -1.3076    5.2506    0.0000 C   0  0
   -1.3103    6.7506    0.0000 N   0  0
    1.2928    3.7558    0.0000 C   0  0
    2.6464    3.1392    0.0000 C   0  0
    3.6464    4.2573    0.0000 S   0  0
    2.8921    5.5538    0.0000 C   0  0
    3.4979    6.9269    0.0000 C   0  0
    4.9680    7.1986    0.0000 C   0  0
    5.4686    8.6126    0.0000 C   0  0
    4.4943    9.7531    0.0000 C   0  0
    3.0194    9.4796    0.0000 C   0  0
    2.5189    8.0656    0.0000 C   0  0
    1.4259    5.2371    0.0000 N   0  0
   -1.2990    0.7500    0.0000 C   0  0
   -1.2990   -0.7500    0.0000 C   0  0
   -2.6003   -1.4978    0.0000 O   0  0
   -3.8983   -0.7459    0.0000 C   0  0
    0.0000   -1.5000    0.0000 C   0  0
    0.0031   -3.0008    0.0000 O   0  0
    1.3032   -3.7490    0.0000 C   0  0
  1  2  1  0
  2  3  1  0
  3  4  2  0
  4  5  1  0
  5  6  1  0
  6  7  2  0
  7  8  1  0
  8  9  3  0
  6 10  1  0
 10 11  2  0
 11 12  1  0
 12 13  1  0
 13 14  1  0
 14 15  2  0
 15 16  1  0
 16 17  2  0
 17 18  1  0
 18 19  2  0
 19 14  1  0
 13 20  2  0
 20 10  1  0
  5 21  2  0
 21 22  1  0
 22 23  1  0
 23 24  1  0
 22 25  2  0
 25  3  1  0
 25 26  1  0
 26 27  1  0
M  END
> <assay_chembl_id>
CHEMBL1832179

> <assay_description>
Anticancer activity against human LNCAP cells after 96 hrs by SRB assay

> <document_journal>
J Med Chem

> <molecule_chembl_id>
CHEMBL1830217

> <standard_value>
580

> <IC50_uM>
0.58

> <Activity>
Yes

> <Canonical_Smiles>
COc1cc(/C(=C/C#N)c2csc(-c3ccccc3)n2)cc(OC)c1OC

$$$$

  SciTegic03142313312D

 26 28  0  0  0  0            999 V2000
    2.5951   -3.0031    0.0000 C   0  0
    2.5973   -1.5031    0.0000 O   0  0
    1.2990   -0.7500    0.0000 C   0  0
    1.2990    0.7500    0.0000 C   0  0
    0.0000    1.5000    0.0000 C   0  0
   -1.2990    0.7500    0.0000 C   0  0
   -2.5988    1.5004    0.0000 S   0  0
   -3.8976    0.7500    0.0000 O   0  0
   -3.8982    2.2498    0.0000 O   0  0
   -2.5998    3.0012    0.0000 N   0  0
   -3.8995    3.7516    0.0000 C   0  0
   -5.1971    2.9990    0.0000 C   0  0
   -6.4977    3.7464    0.0000 C   0  0
   -6.5007    5.2464    0.0000 C   0  0
   -5.2032    5.9990    0.0000 N   0  0
   -3.9027    5.2517    0.0000 C   0  0
   -2.6060    6.0074    0.0000 N   0  0
   -2.6113    7.5082    0.0000 C   0  0
   -1.3164    8.2655    0.0000 C   0  0
   -1.3247    9.7655    0.0000 C   0  0
   -2.6279   10.5083    0.0000 C   0  0
   -2.6362   12.0083    0.0000 O   0  0
   -3.9227    9.7511    0.0000 C   0  0
   -3.9144    8.2511    0.0000 C   0  0
   -1.2990   -0.7500    0.0000 C   0  0
    0.0000   -1.5000    0.0000 C   0  0
  1  2  1  0
  2  3  1  0
  3  4  2  0
  4  5  1  0
  5  6  2  0
  6  7  1  0
  7  8  2  0
  7  9  2  0
  7 10  1  0
 10 11  1  0
 11 12  2  0
 12 13  1  0
 13 14  2  0
 14 15  1  0
 15 16  2  0
 16 11  1  0
 16 17  1  0
 17 18  1  0
 18 19  2  0
 19 20  1  0
 20 21  2  0
 21 22  1  0
 21 23  1  0
 23 24  2  0
 24 18  1  0
  6 25  1  0
 25 26  2  0
 26  3  1  0
M  END
> <assay_chembl_id>
CHEMBL1832179

> <assay_description>
Anticancer activity against human LNCAP cells after 96 hrs by SRB assay

> <document_journal>
J Med Chem

> <molecule_chembl_id>
CHEMBL1830238

> <standard_value>
658

> <IC50_uM>
0.658

> <Activity>
Yes

> <RemovedSalts>
HCl

> <Canonical_Smiles>
COc1ccc(S(=O)(=O)Nc2cccnc2Nc2ccc(O)cc2)cc1.Cl

$$$$

  SciTegic03142313312D

 26 28  0  0  0  0            999 V2000
    3.8983   -0.7459    0.0000 C   0  0
    2.6003   -1.4977    0.0000 O   0  0
    1.2990   -0.7500    0.0000 C   0  0
    1.2990    0.7500    0.0000 C   0  0
    0.0000    1.5000    0.0000 C   0  0
   -0.0031    3.0008    0.0000 C   0  0
    1.2938    3.7562    0.0000 N   0  0
    1.2890    5.2562    0.0000 O   0  0
   -1.3039    3.7494    0.0000 C   0  0
   -1.4470    5.2297    0.0000 C   0  0
   -2.9153    5.5365    0.0000 S   0  0
   -3.6607    4.2349    0.0000 C   0  0
   -5.1527    4.0728    0.0000 C   0  0
   -6.1233    5.2100    0.0000 C   0  0
   -7.5981    4.9362    0.0000 C   0  0
   -8.0984    3.5221    0.0000 C   0  0
   -7.1240    2.3818    0.0000 C   0  0
   -5.6491    2.6555    0.0000 C   0  0
   -2.6532    3.1236    0.0000 N   0  0
   -1.2990    0.7500    0.0000 C   0  0
   -1.2990   -0.7500    0.0000 C   0  0
   -2.6003   -1.4978    0.0000 O   0  0
   -3.8983   -0.7459    0.0000 C   0  0
    0.0000   -1.5000    0.0000 C   0  0
    0.0031   -3.0008    0.0000 O   0  0
    1.3032   -3.7490    0.0000 C   0  0
  1  2  1  0
  2  3  1  0
  3  4  2  0
  4  5  1  0
  5  6  1  0
  6  7  2  0
  7  8  1  0
  6  9  1  0
  9 10  2  0
 10 11  1  0
 11 12  1  0
 12 13  1  0
 13 14  2  0
 14 15  1  0
 15 16  2  0
 16 17  1  0
 17 18  2  0
 18 13  1  0
 12 19  2  0
 19  9  1  0
  5 20  2  0
 20 21  1  0
 21 22  1  0
 22 23  1  0
 21 24  2  0
 24  3  1  0
 24 25  1  0
 25 26  1  0
M  END
> <assay_chembl_id>
CHEMBL1832179

> <assay_description>
Anticancer activity against human LNCAP cells after 96 hrs by SRB assay

> <document_journal>
J Med Chem

> <molecule_chembl_id>
CHEMBL1830210

> <standard_value>
169

> <IC50_uM>
0.169

> <Activity>
Yes

> <Canonical_Smiles>
COc1cc(/C(=N/O)c2csc(-c3ccccc3)n2)cc(OC)c1OC

$$$$

  SciTegic03142313312D

 25 27  0  0  0  0            999 V2000
    3.8983   -0.7459    0.0000 C   0  0
    2.6003   -1.4977    0.0000 O   0  0
    1.2990   -0.7500    0.0000 C   0  0
    1.2990    0.7500    0.0000 C   0  0
    0.0000    1.5000    0.0000 C   0  0
   -0.0031    3.0008    0.0000 C   0  0
    1.2946    3.7531    0.0000 O   0  0
   -1.3039    3.7494    0.0000 C   0  0
   -1.4470    5.2297    0.0000 C   0  0
   -2.9153    5.5365    0.0000 O   0  0
   -3.6607    4.2349    0.0000 C   0  0
   -5.1527    4.0728    0.0000 C   0  0
   -6.1233    5.2100    0.0000 C   0  0
   -7.5981    4.9362    0.0000 C   0  0
   -8.0984    3.5221    0.0000 C   0  0
   -7.1240    2.3818    0.0000 C   0  0
   -5.6491    2.6555    0.0000 C   0  0
   -2.6532    3.1236    0.0000 N   0  0
   -1.2990    0.7500    0.0000 C   0  0
   -1.2990   -0.7500    0.0000 C   0  0
   -2.6003   -1.4978    0.0000 O   0  0
   -3.8983   -0.7459    0.0000 C   0  0
    0.0000   -1.5000    0.0000 C   0  0
    0.0031   -3.0008    0.0000 O   0  0
    1.3032   -3.7490    0.0000 C   0  0
  1  2  1  0
  2  3  1  0
  3  4  2  0
  4  5  1  0
  5  6  1  0
  6  7  2  0
  6  8  1  0
  8  9  2  0
  9 10  1  0
 10 11  1  0
 11 12  1  0
 12 13  2  0
 13 14  1  0
 14 15  2  0
 15 16  1  0
 16 17  2  0
 17 12  1  0
 11 18  2  0
 18  8  1  0
  5 19  2  0
 19 20  1  0
 20 21  1  0
 21 22  1  0
 20 23  2  0
 23  3  1  0
 23 24  1  0
 24 25  1  0
M  END
> <assay_chembl_id>
CHEMBL1832179

> <assay_description>
Anticancer activity against human LNCAP cells after 96 hrs by SRB assay

> <document_journal>
J Med Chem

> <molecule_chembl_id>
CHEMBL1830200

> <standard_value>
331

> <IC50_uM>
0.331

> <Activity>
Yes

> <Canonical_Smiles>
COc1cc(C(=O)c2coc(-c3ccccc3)n2)cc(OC)c1OC

$$$$

  SciTegic03142313312D

 25 27  0  0  0  0            999 V2000
    3.8983   -0.7459    0.0000 C   0  0
    2.6003   -1.4977    0.0000 O   0  0
    1.2990   -0.7500    0.0000 C   0  0
    1.2990    0.7500    0.0000 C   0  0
    0.0000    1.5000    0.0000 C   0  0
   -0.0031    3.0008    0.0000 C   0  0
    1.2946    3.7531    0.0000 O   0  0
   -1.3039    3.7494    0.0000 C   0  0
   -1.4470    5.2297    0.0000 C   0  0
   -2.9153    5.5365    0.0000 C   0  0
   -3.5304    6.9054    0.0000 C   0  0
   -2.7488    8.1798    0.0000 C   0  0
   -3.4649    9.4979    0.0000 C   0  0
   -4.9644    9.5368    0.0000 C   0  0
   -5.7478    8.2576    0.0000 C   0  0
   -5.0318    6.9395    0.0000 C   0  0
   -3.6607    4.2349    0.0000 N   0  0
   -2.6532    3.1236    0.0000 N   0  0
   -1.2990    0.7500    0.0000 C   0  0
   -1.2990   -0.7500    0.0000 C   0  0
   -2.6003   -1.4978    0.0000 O   0  0
   -3.8983   -0.7459    0.0000 C   0  0
    0.0000   -1.5000    0.0000 C   0  0
    0.0031   -3.0008    0.0000 O   0  0
    1.3032   -3.7490    0.0000 C   0  0
  1  2  1  0
  2  3  1  0
  3  4  2  0
  4  5  1  0
  5  6  1  0
  6  7  2  0
  6  8  1  0
  8  9  2  0
  9 10  1  0
 10 11  1  0
 11 12  2  0
 12 13  1  0
 13 14  2  0
 14 15  1  0
 15 16  2  0
 16 11  1  0
 10 17  2  0
 17 18  1  0
 18  8  1  0
  5 19  2  0
 19 20  1  0
 20 21  1  0
 21 22  1  0
 20 23  2  0
 23  3  1  0
 23 24  1  0
 24 25  1  0
M  END
> <assay_chembl_id>
CHEMBL1832179

> <assay_description>
Anticancer activity against human LNCAP cells after 96 hrs by SRB assay

> <document_journal>
J Med Chem

> <molecule_chembl_id>
CHEMBL1830206

> <standard_value>
101

> <IC50_uM>
0.101

> <Activity>
Yes

> <Canonical_Smiles>
COc1cc(C(=O)c2cc(-c3ccccc3)n[nH]2)cc(OC)c1OC

$$$$

  SciTegic03142313312D

 26 28  0  0  0  0            999 V2000
    3.8983   -0.7459    0.0000 C   0  0
    2.6003   -1.4977    0.0000 O   0  0
    1.2990   -0.7500    0.0000 C   0  0
    1.2990    0.7500    0.0000 C   0  0
    0.0000    1.5000    0.0000 C   0  0
   -0.0031    3.0008    0.0000 C   0  0
    1.2946    3.7531    0.0000 O   0  0
   -1.3039    3.7494    0.0000 C   0  0
   -1.3092    5.2494    0.0000 C   0  0
   -2.6108    5.9949    0.0000 C   0  0
   -3.9073    5.2404    0.0000 C   0  0
   -3.9021    3.7404    0.0000 C   0  0
   -5.1992    2.9855    0.0000 C   0  0
   -6.5021    3.7289    0.0000 C   0  0
   -7.7973    2.9724    0.0000 C   0  0
   -7.7897    1.4724    0.0000 C   0  0
   -6.4869    0.7290    0.0000 C   0  0
   -5.1917    1.4855    0.0000 C   0  0
   -2.6005    2.9949    0.0000 C   0  0
   -1.2990    0.7500    0.0000 C   0  0
   -1.2990   -0.7500    0.0000 C   0  0
   -2.6003   -1.4978    0.0000 O   0  0
   -3.8983   -0.7459    0.0000 C   0  0
    0.0000   -1.5000    0.0000 C   0  0
    0.0031   -3.0008    0.0000 O   0  0
    1.3032   -3.7490    0.0000 C   0  0
  1  2  1  0
  2  3  1  0
  3  4  2  0
  4  5  1  0
  5  6  1  0
  6  7  2  0
  6  8  1  0
  8  9  2  0
  9 10  1  0
 10 11  2  0
 11 12  1  0
 12 13  1  0
 13 14  2  0
 14 15  1  0
 15 16  2  0
 16 17  1  0
 17 18  2  0
 18 13  1  0
 12 19  2  0
 19  8  1  0
  5 20  2  0
 20 21  1  0
 21 22  1  0
 22 23  1  0
 21 24  2  0
 24  3  1  0
 24 25  1  0
 25 26  1  0
M  END
> <assay_chembl_id>
CHEMBL1832179

> <assay_description>
Anticancer activity against human LNCAP cells after 96 hrs by SRB assay

> <document_journal>
J Med Chem

> <molecule_chembl_id>
CHEMBL1830201

> <standard_value>
52

> <IC50_uM>
0.052

> <Activity>
Yes

> <Canonical_Smiles>
COc1cc(C(=O)c2cccc(-c3ccccc3)c2)cc(OC)c1OC

$$$$

  SciTegic03142313312D

 26 28  0  0  0  0            999 V2000
    3.8983   -0.7459    0.0000 C   0  0
    2.6003   -1.4977    0.0000 O   0  0
    1.2990   -0.7500    0.0000 C   0  0
    1.2990    0.7500    0.0000 C   0  0
    0.0000    1.5000    0.0000 C   0  0
   -0.0031    3.0008    0.0000 C   0  0
    1.2946    3.7531    0.0000 O   0  0
   -1.3039    3.7494    0.0000 C   0  0
   -1.4470    5.2297    0.0000 C   0  0
   -2.9153    5.5365    0.0000 S   0  0
   -3.6607    4.2349    0.0000 C   0  0
   -5.1527    4.0728    0.0000 C   0  0
   -6.1233    5.2100    0.0000 C   0  0
   -7.5981    4.9362    0.0000 C   0  0
   -8.0984    3.5221    0.0000 C   0  0
   -9.5732    3.2484    0.0000 O   0  0
   -7.1240    2.3818    0.0000 C   0  0
   -5.6491    2.6555    0.0000 C   0  0
   -2.6532    3.1236    0.0000 N   0  0
   -1.2990    0.7500    0.0000 C   0  0
   -1.2990   -0.7500    0.0000 C   0  0
   -2.6003   -1.4978    0.0000 O   0  0
   -3.8983   -0.7459    0.0000 C   0  0
    0.0000   -1.5000    0.0000 C   0  0
    0.0031   -3.0008    0.0000 O   0  0
    1.3032   -3.7490    0.0000 C   0  0
  1  2  1  0
  2  3  1  0
  3  4  2  0
  4  5  1  0
  5  6  1  0
  6  7  2  0
  6  8  1  0
  8  9  2  0
  9 10  1  0
 10 11  1  0
 11 12  1  0
 12 13  2  0
 13 14  1  0
 14 15  2  0
 15 16  1  0
 15 17  1  0
 17 18  2  0
 18 12  1  0
 11 19  2  0
 19  8  1  0
  5 20  2  0
 20 21  1  0
 21 22  1  0
 22 23  1  0
 21 24  2  0
 24  3  1  0
 24 25  1  0
 25 26  1  0
M  END
> <assay_chembl_id>
CHEMBL1832179

> <assay_description>
Anticancer activity against human LNCAP cells after 96 hrs by SRB assay

> <document_journal>
J Med Chem

> <molecule_chembl_id>
CHEMBL1830197

> <standard_value>
103

> <IC50_uM>
0.103

> <Activity>
Yes

> <Canonical_Smiles>
COc1cc(C(=O)c2csc(-c3ccc(O)cc3)n2)cc(OC)c1OC

$$$$

  SciTegic03142313312D

 28 31  0  0  0  0            999 V2000
    0.3357  -13.2016    0.0000 C   0  0
   -0.8032  -12.2254    0.0000 O   0  0
   -0.5279  -10.7500    0.0000 C   0  0
    0.8877  -10.2539    0.0000 C   0  0
    1.1659   -8.7799    0.0000 C   0  0
    2.5812   -8.2806    0.0000 C   0  0
    3.7204   -9.2565    0.0000 O   0  0
    2.8570   -6.8080    0.0000 C   0  0
    4.2107   -6.1619    0.0000 C   0  0
    4.0146   -4.6747    0.0000 S   0  0
    2.5536   -4.4230    0.0000 C   0  0
    1.8032   -3.1233    0.0000 C   0  0
    2.4133   -1.7530    0.0000 C   0  0
    1.2990   -0.7500    0.0000 C   0  0
    1.2990    0.7500    0.0000 C   0  0
    0.0000    1.5000    0.0000 C   0  0
   -1.2990    0.7500    0.0000 C   0  0
   -1.2990   -0.7500    0.0000 C   0  0
    0.0000   -1.5000    0.0000 C   0  0
    0.3114   -2.9665    0.0000 N   0  0
    1.8242   -5.7201    0.0000 N   0  0
    0.0283   -7.8020    0.0000 C   0  0
   -1.3872   -8.2982    0.0000 C   0  0
   -2.5233   -7.3174    0.0000 O   0  0
   -2.2431   -5.8438    0.0000 C   0  0
   -1.6654   -9.7722    0.0000 C   0  0
   -3.0807  -10.2715    0.0000 O   0  0
   -3.3567  -11.7459    0.0000 C   0  0
  1  2  1  0
  2  3  1  0
  3  4  2  0
  4  5  1  0
  5  6  1  0
  6  7  2  0
  6  8  1  0
  8  9  2  0
  9 10  1  0
 10 11  1  0
 11 12  1  0
 12 13  2  0
 13 14  1  0
 14 15  2  0
 15 16  1  0
 16 17  2  0
 17 18  1  0
 18 19  2  0
 19 14  1  0
 19 20  1  0
 20 12  1  0
 11 21  2  0
 21  8  1  0
  5 22  2  0
 22 23  1  0
 23 24  1  0
 24 25  1  0
 23 26  2  0
 26  3  1  0
 26 27  1  0
 27 28  1  0
M  END
> <assay_chembl_id>
CHEMBL1832179

> <assay_description>
Anticancer activity against human LNCAP cells after 96 hrs by SRB assay

> <document_journal>
J Med Chem

> <molecule_chembl_id>
CHEMBL1830230

> <standard_value>
28

> <IC50_uM>
0.028

> <Activity>
Yes

> <Canonical_Smiles>
COc1cc(C(=O)c2csc(-c3cc4ccccc4[nH]3)n2)cc(OC)c1OC

$$$$

  SciTegic03142313312D

 26 28  0  0  0  0            999 V2000
    3.8983   -0.7459    0.0000 C   0  0
    2.6003   -1.4977    0.0000 O   0  0
    1.2990   -0.7500    0.0000 C   0  0
    1.2990    0.7500    0.0000 C   0  0
    0.0000    1.5000    0.0000 C   0  0
   -0.0031    3.0008    0.0000 C   0  0
    1.2946    3.7531    0.0000 O   0  0
   -1.3039    3.7494    0.0000 C   0  0
   -1.3092    5.2494    0.0000 C   0  0
   -2.6108    5.9949    0.0000 C   0  0
   -3.9073    5.2404    0.0000 C   0  0
   -3.9021    3.7404    0.0000 C   0  0
   -5.1992    2.9855    0.0000 C   0  0
   -6.5021    3.7289    0.0000 C   0  0
   -7.7973    2.9724    0.0000 C   0  0
   -7.7897    1.4724    0.0000 C   0  0
   -6.4869    0.7290    0.0000 C   0  0
   -5.1917    1.4855    0.0000 C   0  0
   -2.6005    2.9949    0.0000 N   0  0
   -1.2990    0.7500    0.0000 C   0  0
   -1.2990   -0.7500    0.0000 C   0  0
   -2.6003   -1.4978    0.0000 O   0  0
   -3.8983   -0.7459    0.0000 C   0  0
    0.0000   -1.5000    0.0000 C   0  0
    0.0031   -3.0008    0.0000 O   0  0
    1.3032   -3.7490    0.0000 C   0  0
  1  2  1  0
  2  3  1  0
  3  4  2  0
  4  5  1  0
  5  6  1  0
  6  7  2  0
  6  8  1  0
  8  9  2  0
  9 10  1  0
 10 11  2  0
 11 12  1  0
 12 13  1  0
 13 14  2  0
 14 15  1  0
 15 16  2  0
 16 17  1  0
 17 18  2  0
 18 13  1  0
 12 19  2  0
 19  8  1  0
  5 20  2  0
 20 21  1  0
 21 22  1  0
 22 23  1  0
 21 24  2  0
 24  3  1  0
 24 25  1  0
 25 26  1  0
M  END
> <assay_chembl_id>
CHEMBL1832179

> <assay_description>
Anticancer activity against human LNCAP cells after 96 hrs by SRB assay

> <document_journal>
J Med Chem

> <molecule_chembl_id>
CHEMBL1830203

> <standard_value>
27

> <IC50_uM>
0.027

> <Activity>
Yes

> <Canonical_Smiles>
COc1cc(C(=O)c2cccc(-c3ccccc3)n2)cc(OC)c1OC

$$$$

  SciTegic03142313312D

 27 29  0  0  0  0            999 V2000
    3.8983   -0.7459    0.0000 C   0  0
    2.6003   -1.4977    0.0000 O   0  0
    1.2990   -0.7500    0.0000 C   0  0
    1.2990    0.7500    0.0000 C   0  0
    0.0000    1.5000    0.0000 C   0  0
   -0.0044    3.0009    0.0000 C   0  0
   -1.3050    3.7498    0.0000 N   0  0
   -2.6044    2.9987    0.0000 C   0  0
   -3.9030    2.2481    0.0000 N   0  0
    1.2928    3.7558    0.0000 C   0  0
    2.6464    3.1392    0.0000 C   0  0
    3.6464    4.2573    0.0000 S   0  0
    2.8921    5.5538    0.0000 C   0  0
    3.4979    6.9269    0.0000 C   0  0
    4.9680    7.1986    0.0000 C   0  0
    5.4686    8.6126    0.0000 C   0  0
    4.4943    9.7531    0.0000 C   0  0
    3.0194    9.4796    0.0000 C   0  0
    2.5189    8.0656    0.0000 C   0  0
    1.4259    5.2371    0.0000 N   0  0
   -1.2990    0.7500    0.0000 C   0  0
   -1.2990   -0.7500    0.0000 C   0  0
   -2.6003   -1.4978    0.0000 O   0  0
   -3.8983   -0.7459    0.0000 C   0  0
    0.0000   -1.5000    0.0000 C   0  0
    0.0031   -3.0008    0.0000 O   0  0
    1.3032   -3.7490    0.0000 C   0  0
  1  2  1  0
  2  3  1  0
  3  4  2  0
  4  5  1  0
  5  6  1  0
  6  7  2  0
  7  8  1  0
  8  9  3  0
  6 10  1  0
 10 11  2  0
 11 12  1  0
 12 13  1  0
 13 14  1  0
 14 15  2  0
 15 16  1  0
 16 17  2  0
 17 18  1  0
 18 19  2  0
 19 14  1  0
 13 20  2  0
 20 10  1  0
  5 21  2  0
 21 22  1  0
 22 23  1  0
 23 24  1  0
 22 25  2  0
 25  3  1  0
 25 26  1  0
 26 27  1  0
M  END
> <assay_chembl_id>
CHEMBL1832179

> <assay_description>
Anticancer activity against human LNCAP cells after 96 hrs by SRB assay

> <document_journal>
J Med Chem

> <molecule_chembl_id>
CHEMBL1830219

> <standard_value>
23

> <IC50_uM>
0.023

> <Activity>
Yes

> <Canonical_Smiles>
COc1cc(/C(=N\C#N)c2csc(-c3ccccc3)n2)cc(OC)c1OC

$$$$

  SciTegic03142313312D

 25 27  0  0  0  0            999 V2000
    3.8983   -0.7459    0.0000 C   0  0
    2.6003   -1.4977    0.0000 O   0  0
    1.2990   -0.7500    0.0000 C   0  0
    1.2990    0.7500    0.0000 C   0  0
    0.0000    1.5000    0.0000 C   0  0
   -0.0031    3.0008    0.0000 C   0  0
    1.2946    3.7531    0.0000 O   0  0
   -1.3039    3.7494    0.0000 C   0  0
   -1.4470    5.2297    0.0000 C   0  0
   -2.9153    5.5365    0.0000 S   0  0
   -3.6607    4.2349    0.0000 C   0  0
   -5.1527    4.0728    0.0000 C   0  0
   -6.1233    5.2100    0.0000 C   0  0
   -7.5981    4.9362    0.0000 C   0  0
   -8.0984    3.5221    0.0000 C   0  0
   -7.1240    2.3818    0.0000 C   0  0
   -5.6491    2.6555    0.0000 C   0  0
   -2.6532    3.1236    0.0000 C   0  0
   -1.2990    0.7500    0.0000 C   0  0
   -1.2990   -0.7500    0.0000 C   0  0
   -2.6003   -1.4978    0.0000 O   0  0
   -3.8983   -0.7459    0.0000 C   0  0
    0.0000   -1.5000    0.0000 C   0  0
    0.0031   -3.0008    0.0000 O   0  0
    1.3032   -3.7490    0.0000 C   0  0
  1  2  1  0
  2  3  1  0
  3  4  2  0
  4  5  1  0
  5  6  1  0
  6  7  2  0
  6  8  1  0
  8  9  2  0
  9 10  1  0
 10 11  1  0
 11 12  1  0
 12 13  2  0
 13 14  1  0
 14 15  2  0
 15 16  1  0
 16 17  2  0
 17 12  1  0
 11 18  2  0
 18  8  1  0
  5 19  2  0
 19 20  1  0
 20 21  1  0
 21 22  1  0
 20 23  2  0
 23  3  1  0
 23 24  1  0
 24 25  1  0
M  END
> <assay_chembl_id>
CHEMBL1832179

> <assay_description>
Anticancer activity against human LNCAP cells after 96 hrs by SRB assay

> <document_journal>
J Med Chem

> <molecule_chembl_id>
CHEMBL1830205

> <standard_value>
17

> <IC50_uM>
0.017

> <Activity>
Yes

> <Canonical_Smiles>
COc1cc(C(=O)c2csc(-c3ccccc3)c2)cc(OC)c1OC

$$$$

  SciTegic03142313312D

 25 27  0  0  0  0            999 V2000
    3.8983   -0.7459    0.0000 C   0  0
    2.6003   -1.4977    0.0000 O   0  0
    1.2990   -0.7500    0.0000 C   0  0
    1.2990    0.7500    0.0000 C   0  0
    0.0000    1.5000    0.0000 C   0  0
   -0.0031    3.0008    0.0000 C   0  0
    1.2946    3.7531    0.0000 O   0  0
   -1.3039    3.7494    0.0000 C   0  0
   -1.4470    5.2297    0.0000 C   0  0
   -2.9153    5.5365    0.0000 C   0  0
   -3.6607    4.2349    0.0000 C   0  0
   -5.1527    4.0728    0.0000 C   0  0
   -6.1233    5.2100    0.0000 C   0  0
   -7.5981    4.9362    0.0000 C   0  0
   -8.0984    3.5221    0.0000 C   0  0
   -7.1240    2.3818    0.0000 C   0  0
   -5.6491    2.6555    0.0000 C   0  0
   -2.6532    3.1236    0.0000 O   0  0
   -1.2990    0.7500    0.0000 C   0  0
   -1.2990   -0.7500    0.0000 C   0  0
   -2.6003   -1.4978    0.0000 O   0  0
   -3.8983   -0.7459    0.0000 C   0  0
    0.0000   -1.5000    0.0000 C   0  0
    0.0031   -3.0008    0.0000 O   0  0
    1.3032   -3.7490    0.0000 C   0  0
  1  2  1  0
  2  3  1  0
  3  4  2  0
  4  5  1  0
  5  6  1  0
  6  7  2  0
  6  8  1  0
  8  9  2  0
  9 10  1  0
 10 11  2  0
 11 12  1  0
 12 13  2  0
 13 14  1  0
 14 15  2  0
 15 16  1  0
 16 17  2  0
 17 12  1  0
 11 18  1  0
 18  8  1  0
  5 19  2  0
 19 20  1  0
 20 21  1  0
 21 22  1  0
 20 23  2  0
 23  3  1  0
 23 24  1  0
 24 25  1  0
M  END
> <assay_chembl_id>
CHEMBL1832179

> <assay_description>
Anticancer activity against human LNCAP cells after 96 hrs by SRB assay

> <document_journal>
J Med Chem

> <molecule_chembl_id>
CHEMBL1830204

> <standard_value>
23

> <IC50_uM>
0.023

> <Activity>
Yes

> <Canonical_Smiles>
COc1cc(C(=O)c2ccc(-c3ccccc3)o2)cc(OC)c1OC

$$$$

  SciTegic03142313312D

 27 29  0  0  0  0            999 V2000
    3.8983   -0.7459    0.0000 C   0  0
    2.6003   -1.4977    0.0000 O   0  0
    1.2990   -0.7500    0.0000 C   0  0
    1.2990    0.7500    0.0000 C   0  0
    0.0000    1.5000    0.0000 C   0  0
   -0.0031    3.0008    0.0000 C   0  0
    1.2946    3.7531    0.0000 O   0  0
   -1.3039    3.7494    0.0000 C   0  0
   -1.4470    5.2297    0.0000 C   0  0
   -2.9153    5.5365    0.0000 S   0  0
   -3.6607    4.2349    0.0000 C   0  0
   -5.1499    4.0700    0.0000 N   0  0
   -5.7536    2.6959    0.0000 C   0  0
   -7.2442    2.5286    0.0000 C   0  0
   -7.8448    1.1541    0.0000 C   0  0
   -6.9547   -0.0532    0.0000 C   0  0
   -7.5553   -1.4278    0.0000 C   0  0
   -5.4640    0.1139    0.0000 C   0  0
   -4.8635    1.4884    0.0000 C   0  0
   -2.6532    3.1236    0.0000 N   0  0
   -1.2990    0.7500    0.0000 C   0  0
   -1.2990   -0.7500    0.0000 C   0  0
   -2.6003   -1.4978    0.0000 O   0  0
   -3.8983   -0.7459    0.0000 C   0  0
    0.0000   -1.5000    0.0000 C   0  0
    0.0031   -3.0008    0.0000 O   0  0
    1.3032   -3.7490    0.0000 C   0  0
  1  2  1  0
  2  3  1  0
  3  4  2  0
  4  5  1  0
  5  6  1  0
  6  7  2  0
  6  8  1  0
  8  9  2  0
  9 10  1  0
 10 11  1  0
 11 12  1  0
 12 13  1  0
 13 14  2  0
 14 15  1  0
 15 16  2  0
 16 17  1  0
 16 18  1  0
 18 19  2  0
 19 13  1  0
 11 20  2  0
 20  8  1  0
  5 21  2  0
 21 22  1  0
 22 23  1  0
 23 24  1  0
 22 25  2  0
 25  3  1  0
 25 26  1  0
 26 27  1  0
M  END
> <assay_chembl_id>
CHEMBL1832179

> <assay_description>
Anticancer activity against human LNCAP cells after 96 hrs by SRB assay

> <document_journal>
J Med Chem

> <molecule_chembl_id>
CHEMBL1830236

> <standard_value>
35

> <IC50_uM>
0.035

> <Activity>
Yes

> <RemovedSalts>
HCl

> <Canonical_Smiles>
COc1cc(C(=O)c2csc(Nc3ccc(C)cc3)n2)cc(OC)c1OC.Cl

$$$$

  SciTegic03142313312D

 27 29  0  0  0  0            999 V2000
    3.8983   -0.7459    0.0000 C   0  0
    2.6003   -1.4977    0.0000 O   0  0
    1.2990   -0.7500    0.0000 C   0  0
    1.2990    0.7500    0.0000 C   0  0
    0.0000    1.5000    0.0000 C   0  0
   -0.0031    3.0008    0.0000 C   0  0
    1.2946    3.7531    0.0000 O   0  0
   -1.3039    3.7494    0.0000 C   0  0
   -1.4470    5.2297    0.0000 C   0  0
   -2.9153    5.5365    0.0000 S   0  0
   -3.6607    4.2349    0.0000 C   0  0
   -5.1499    4.0700    0.0000 N   0  0
   -5.7536    2.6959    0.0000 C   0  0
   -7.2442    2.5286    0.0000 C   0  0
   -7.8448    1.1541    0.0000 C   0  0
   -6.9547   -0.0532    0.0000 C   0  0
   -7.5553   -1.4278    0.0000 F   0  0
   -5.4640    0.1139    0.0000 C   0  0
   -4.8635    1.4884    0.0000 C   0  0
   -2.6532    3.1236    0.0000 N   0  0
   -1.2990    0.7500    0.0000 C   0  0
   -1.2990   -0.7500    0.0000 C   0  0
   -2.6003   -1.4978    0.0000 O   0  0
   -3.8983   -0.7459    0.0000 C   0  0
    0.0000   -1.5000    0.0000 C   0  0
    0.0031   -3.0008    0.0000 O   0  0
    1.3032   -3.7490    0.0000 C   0  0
  1  2  1  0
  2  3  1  0
  3  4  2  0
  4  5  1  0
  5  6  1  0
  6  7  2  0
  6  8  1  0
  8  9  2  0
  9 10  1  0
 10 11  1  0
 11 12  1  0
 12 13  1  0
 13 14  2  0
 14 15  1  0
 15 16  2  0
 16 17  1  0
 16 18  1  0
 18 19  2  0
 19 13  1  0
 11 20  2  0
 20  8  1  0
  5 21  2  0
 21 22  1  0
 22 23  1  0
 23 24  1  0
 22 25  2  0
 25  3  1  0
 25 26  1  0
 26 27  1  0
M  END
> <assay_chembl_id>
CHEMBL1832179

> <assay_description>
Anticancer activity against human LNCAP cells after 96 hrs by SRB assay

> <document_journal>
J Med Chem

> <molecule_chembl_id>
CHEMBL1830237

> <standard_value>
41

> <IC50_uM>
0.041

> <Activity>
Yes

> <Canonical_Smiles>
COc1cc(C(=O)c2csc(Nc3ccc(F)cc3)n2)cc(OC)c1OC

$$$$

  SciTegic03142313312D

 26 28  0  0  0  0            999 V2000
    3.8983   -0.7459    0.0000 C   0  0
    2.6003   -1.4977    0.0000 O   0  0
    1.2990   -0.7500    0.0000 C   0  0
    1.2990    0.7500    0.0000 C   0  0
    0.0000    1.5000    0.0000 C   0  0
   -0.0031    3.0008    0.0000 C   0  0
    1.2946    3.7531    0.0000 O   0  0
   -1.3039    3.7494    0.0000 C   0  0
   -1.4470    5.2297    0.0000 C   0  0
   -2.9153    5.5365    0.0000 S   0  0
   -3.6607    4.2349    0.0000 C   0  0
   -5.1499    4.0700    0.0000 N   0  0
   -5.7536    2.6959    0.0000 C   0  0
   -7.2442    2.5286    0.0000 C   0  0
   -7.8448    1.1541    0.0000 C   0  0
   -6.9547   -0.0532    0.0000 C   0  0
   -5.4640    0.1139    0.0000 C   0  0
   -4.8635    1.4884    0.0000 C   0  0
   -2.6532    3.1236    0.0000 N   0  0
   -1.2990    0.7500    0.0000 C   0  0
   -1.2990   -0.7500    0.0000 C   0  0
   -2.6003   -1.4978    0.0000 O   0  0
   -3.8983   -0.7459    0.0000 C   0  0
    0.0000   -1.5000    0.0000 C   0  0
    0.0031   -3.0008    0.0000 O   0  0
    1.3032   -3.7490    0.0000 C   0  0
  1  2  1  0
  2  3  1  0
  3  4  2  0
  4  5  1  0
  5  6  1  0
  6  7  2  0
  6  8  1  0
  8  9  2  0
  9 10  1  0
 10 11  1  0
 11 12  1  0
 12 13  1  0
 13 14  2  0
 14 15  1  0
 15 16  2  0
 16 17  1  0
 17 18  2  0
 18 13  1  0
 11 19  2  0
 19  8  1  0
  5 20  2  0
 20 21  1  0
 21 22  1  0
 22 23  1  0
 21 24  2  0
 24  3  1  0
 24 25  1  0
 25 26  1  0
M  END
> <assay_chembl_id>
CHEMBL1832179

> <assay_description>
Anticancer activity against human LNCAP cells after 96 hrs by SRB assay

> <document_journal>
J Med Chem

> <molecule_chembl_id>
CHEMBL1830198

> <standard_value>
51

> <IC50_uM>
0.051

> <Activity>
Yes

> <Canonical_Smiles>
COc1cc(C(=O)c2csc(Nc3ccccc3)n2)cc(OC)c1OC

$$$$

  SciTegic03142313312D

 27 29  0  0  0  0            999 V2000
    3.8983   -0.7459    0.0000 C   0  0
    2.6003   -1.4977    0.0000 O   0  0
    1.2990   -0.7500    0.0000 C   0  0
    1.2990    0.7500    0.0000 C   0  0
    0.0000    1.5000    0.0000 C   0  0
   -0.0031    3.0008    0.0000 C   0  0
    1.2946    3.7531    0.0000 O   0  0
   -1.3039    3.7494    0.0000 C   0  0
   -1.4470    5.2297    0.0000 C   0  0
   -2.9153    5.5365    0.0000 S   0  0
   -3.6607    4.2349    0.0000 C   0  0
   -5.1527    4.0728    0.0000 C   0  0
   -6.1233    5.2100    0.0000 C   0  0
   -7.5981    4.9362    0.0000 C   0  0
   -8.0984    3.5221    0.0000 C   0  0
   -9.5735    3.2452    0.0000 C   0  0
  -10.0718    1.8304    0.0000 N   0  0
   -7.1240    2.3818    0.0000 C   0  0
   -5.6491    2.6555    0.0000 C   0  0
   -2.6532    3.1236    0.0000 N   0  0
   -1.2990    0.7500    0.0000 C   0  0
   -1.2990   -0.7500    0.0000 C   0  0
   -2.6003   -1.4978    0.0000 O   0  0
   -3.8983   -0.7459    0.0000 C   0  0
    0.0000   -1.5000    0.0000 C   0  0
    0.0031   -3.0008    0.0000 O   0  0
    1.3032   -3.7490    0.0000 C   0  0
  1  2  1  0
  2  3  1  0
  3  4  2  0
  4  5  1  0
  5  6  1  0
  6  7  2  0
  6  8  1  0
  8  9  2  0
  9 10  1  0
 10 11  1  0
 11 12  1  0
 12 13  2  0
 13 14  1  0
 14 15  2  0
 15 16  1  0
 16 17  1  0
 15 18  1  0
 18 19  2  0
 19 12  1  0
 11 20  2  0
 20  8  1  0
  5 21  2  0
 21 22  1  0
 22 23  1  0
 23 24  1  0
 22 25  2  0
 25  3  1  0
 25 26  1  0
 26 27  1  0
M  END
> <assay_chembl_id>
CHEMBL1832179

> <assay_description>
Anticancer activity against human LNCAP cells after 96 hrs by SRB assay

> <document_journal>
J Med Chem

> <molecule_chembl_id>
CHEMBL1830233

> <standard_value>
13

> <IC50_uM>
0.013

> <Activity>
Yes

> <RemovedSalts>
HCl

> <Canonical_Smiles>
COc1cc(C(=O)c2csc(-c3ccc(CN)cc3)n2)cc(OC)c1OC.Cl

$$$$

  SciTegic03142313312D

 28 31  0  0  0  0            999 V2000
    5.7323   -9.9957    0.0000 C   0  0
    4.2411   -9.8335    0.0000 O   0  0
    3.6348   -8.4606    0.0000 C   0  0
    4.5226   -7.2516    0.0000 C   0  0
    3.9195   -5.8781    0.0000 C   0  0
    4.8054   -4.6666    0.0000 C   0  0
    6.2966   -4.8284    0.0000 O   0  0
    4.2010   -3.2956    0.0000 C   0  0
    4.9531   -1.9978    0.0000 C   0  0
    3.9511   -0.8815    0.0000 S   0  0
    2.5987   -1.5004    0.0000 C   0  0
    1.2990   -0.7500    0.0000 C   0  0
    1.2990    0.7500    0.0000 C   0  0
    0.0000    1.5000    0.0000 C   0  0
   -1.2990    0.7500    0.0000 C   0  0
   -2.7248    1.2135    0.0000 N   0  0
   -3.6065    0.0000    0.0000 C   0  0
   -2.7248   -1.2135    0.0000 C   0  0
   -1.2990   -0.7500    0.0000 C   0  0
    0.0000   -1.5000    0.0000 C   0  0
    2.7343   -2.9815    0.0000 N   0  0
    2.4285   -5.7138    0.0000 C   0  0
    1.5407   -6.9229    0.0000 C   0  0
    0.0492   -6.7554    0.0000 O   0  0
   -0.5520   -5.3811    0.0000 C   0  0
    2.1438   -8.2963    0.0000 C   0  0
    1.2580   -9.5078    0.0000 O   0  0
    1.8631  -10.8803    0.0000 C   0  0
  1  2  1  0
  2  3  1  0
  3  4  2  0
  4  5  1  0
  5  6  1  0
  6  7  2  0
  6  8  1  0
  8  9  2  0
  9 10  1  0
 10 11  1  0
 11 12  1  0
 12 13  2  0
 13 14  1  0
 14 15  2  0
 15 16  1  0
 16 17  1  0
 17 18  2  0
 18 19  1  0
 19 15  1  0
 19 20  2  0
 20 12  1  0
 11 21  2  0
 21  8  1  0
  5 22  2  0
 22 23  1  0
 23 24  1  0
 24 25  1  0
 23 26  2  0
 26  3  1  0
 26 27  1  0
 27 28  1  0
M  END
> <assay_chembl_id>
CHEMBL1832179

> <assay_description>
Anticancer activity against human LNCAP cells after 96 hrs by SRB assay

> <document_journal>
J Med Chem

> <molecule_chembl_id>
CHEMBL1830231

> <standard_value>
10

> <IC50_uM>
0.01

> <Activity>
Yes

> <Canonical_Smiles>
COc1cc(C(=O)c2csc(-c3ccc4[nH]ccc4c3)n2)cc(OC)c1OC

$$$$

  SciTegic03142313312D

 25 29  0  0  1  0            999 V2000
    3.8983   -0.7459    0.0000 C   0  0
    2.6003   -1.4977    0.0000 O   0  0
    1.2990   -0.7500    0.0000 C   0  0
    1.2990    0.7500    0.0000 C   0  0
    0.0000    1.5000    0.0000 C   0  0
   -1.2990    0.7500    0.0000 C   0  0
   -1.2990   -0.7500    0.0000 C   0  0
    0.0000   -1.5000    0.0000 C   0  0
    0.0000   -3.0000    0.0000 C   0  0
    1.2990   -3.7500    0.0000 O   0  0
   -1.2990   -3.7500    0.0000 C   0  0
   -1.2990   -5.2500    0.0000 C   0  0
   -2.5981   -6.0000    0.0000 C   0  0
   -3.8971   -5.2500    0.0000 C   0  0
   -3.8971   -3.7500    0.0000 N   0  0
   -2.5981   -3.0000    0.0000 C   0  0
   -2.5981   -1.5000    0.0000 N   0  0
   -3.8971   -0.7500    0.0000 C   0  0
   -2.4133    1.7530    0.0000 C   0  0
   -1.8032    3.1233    0.0000 C   0  0  2  0  0  0
   -2.5523    4.4208    0.0000 C   0  0  1  0  0  0
   -1.7997    5.7184    0.0000 C   0  0
   -3.7191    3.6721    0.0000 C   0  0
   -3.7175    5.1721    0.0000 O   0  0
   -0.3115    2.9665    0.0000 O   0  0
  1  2  1  0
  2  3  1  0
  3  4  2  0
  4  5  1  0
  5  6  2  0
  6  7  1  0
  7  8  2  0
  8  3  1  0
  8  9  1  0
  9 10  2  0
  9 11  1  0
 11 12  2  0
 12 13  1  0
 13 14  2  0
 14 15  1  0
 15 16  2  0
 16 11  1  0
 16 17  1  0
 17  7  1  0
 17 18  1  0
  6 19  1  0
 20 19  1  6
 20 21  1  0
 21 22  1  6
 21 23  1  0
 23 24  1  0
 24 21  1  0
 20 25  1  0
 25  5  1  0
M  END
> <assay_chembl_id>
CHEMBL1839442

> <assay_description>
Cytotoxicity against androgen receptor-positive human LNCAP cells after 24 hrs by MTT assay

> <document_journal>
Bioorg Med Chem Lett

> <molecule_chembl_id>
CHEMBL1836989

> <standard_value>
480

> <IC50_uM>
0.48

> <Activity>
Yes

> <Canonical_Smiles>
COc1cc2c(c3c1c(=O)c1cccnc1n3C)C[C@H]([C@@]1(C)CO1)O2

$$$$

  SciTegic03142313312D

 25 29  0  0  1  0            999 V2000
    3.8983   -0.7459    0.0000 C   0  0
    2.6003   -1.4977    0.0000 O   0  0
    1.2990   -0.7500    0.0000 C   0  0
    1.2990    0.7500    0.0000 C   0  0
    0.0000    1.5000    0.0000 C   0  0
   -1.2990    0.7500    0.0000 C   0  0
   -1.2990   -0.7500    0.0000 C   0  0
    0.0000   -1.5000    0.0000 C   0  0
    0.0000   -3.0000    0.0000 C   0  0
    1.2990   -3.7500    0.0000 O   0  0
   -1.2990   -3.7500    0.0000 C   0  0
   -1.2990   -5.2500    0.0000 C   0  0
   -2.5981   -6.0000    0.0000 C   0  0
   -3.8971   -5.2500    0.0000 C   0  0
   -3.8971   -3.7500    0.0000 N   0  0
   -2.5981   -3.0000    0.0000 C   0  0
   -2.5981   -1.5000    0.0000 N   0  0
   -3.8971   -0.7500    0.0000 C   0  0
   -2.4133    1.7530    0.0000 C   0  0
   -1.8032    3.1233    0.0000 C   0  0  2  0  0  0
   -2.5523    4.4208    0.0000 C   0  0  2  0  0  0
   -1.7997    5.7184    0.0000 C   0  0
   -3.7191    3.6721    0.0000 C   0  0
   -3.7175    5.1721    0.0000 O   0  0
   -0.3115    2.9665    0.0000 O   0  0
  1  2  1  0
  2  3  1  0
  3  4  2  0
  4  5  1  0
  5  6  2  0
  6  7  1  0
  7  8  2  0
  8  3  1  0
  8  9  1  0
  9 10  2  0
  9 11  1  0
 11 12  2  0
 12 13  1  0
 13 14  2  0
 14 15  1  0
 15 16  2  0
 16 11  1  0
 16 17  1  0
 17  7  1  0
 17 18  1  0
  6 19  1  0
 20 19  1  6
 20 21  1  0
 21 22  1  1
 21 23  1  0
 23 24  1  0
 24 21  1  0
 20 25  1  0
 25  5  1  0
M  END
> <assay_chembl_id>
CHEMBL1839441

> <assay_description>
Cytotoxicity against androgen receptor-positive human LNCAP cells after 48 hrs by MTT assay

> <document_journal>
Bioorg Med Chem Lett

> <molecule_chembl_id>
CHEMBL1836990

> <standard_value>
860

> <IC50_uM>
0.86

> <Activity>
Yes

> <Canonical_Smiles>
COc1cc2c(c3c1c(=O)c1cccnc1n3C)C[C@H]([C@]1(C)CO1)O2

$$$$

  SciTegic03142313312D

 32 31  0  0  0  0            999 V2000
   33.7976   -0.0317    0.0000 C   0  0
   32.4997    0.7203    0.0000 C   0  0
   31.1983   -0.0272    0.0000 C   0  0
   29.8997    0.7253    0.0000 C   0  0
   28.5983   -0.0223    0.0000 C   0  0
   27.2998    0.7302    0.0000 C   0  0
   25.9984   -0.0173    0.0000 C   0  0
   24.6998    0.7352    0.0000 C   0  0
   23.3984   -0.0124    0.0000 C   0  0
   22.0998    0.7401    0.0000 C   0  0
   20.7984   -0.0074    0.0000 C   0  0
   19.4998    0.7451    0.0000 C   0  0
   18.1984   -0.0025    0.0000 C   0  0
   16.8999    0.7500    0.0000 C   0  0
   16.9013    2.2508    0.0000 N   0  0
   15.6005    2.9994    0.0000 N   0  0
   14.3013    2.2480    0.0000 C   0  0
   14.3030    0.7480    0.0000 O   0  0
   13.0005    2.9965    0.0000 C   0  0
   11.7013    2.2451    0.0000 O   0  0
   10.4012    2.9932    0.0000 C   0  0
   18.2013    3.0008    0.0000 C   0  0
   19.4998    2.2500    0.0000 O   0  0
   18.2027    4.5016    0.0000 C   0  0
   19.5027    5.2516    0.0000 C   0  0
   19.5041    6.7525    0.0000 C   0  0
   20.8041    7.5025    0.0000 C   0  0
   20.8056    9.0033    0.0000 C   0  0
   22.1055    9.7533    0.0000 C   0  0
   22.1070   11.2541    0.0000 C   0  0
   23.4070   12.0041    0.0000 C   0  0
   23.4084   13.5041    0.0000 C   0  0
  1  2  1  0
  2  3  1  0
  3  4  1  0
  4  5  1  0
  5  6  1  0
  6  7  1  0
  7  8  1  0
  8  9  1  0
  9 10  1  0
 10 11  1  0
 11 12  1  0
 12 13  1  0
 13 14  2  0
 14 15  1  0
 15 16  1  0
 16 17  1  0
 17 18  2  0
 17 19  1  0
 19 20  1  0
 20 21  1  0
 15 22  1  0
 22 23  2  0
 22 24  1  0
 24 25  1  0
 25 26  1  0
 26 27  1  0
 27 28  1  0
 28 29  1  0
 29 30  1  0
 30 31  1  0
 31 32  1  0
M  END
> <assay_chembl_id>
CHEMBL1839678

> <assay_description>
Cytotoxicity against human LNCAP cells by propidium iodide staining

> <document_journal>
Bioorg Med Chem Lett

> <molecule_chembl_id>
CHEMBL1834207

> <standard_value>
957

> <IC50_uM>
0.957

> <Activity>
Yes

> <Canonical_Smiles>
CCCCCCCCCCCC/C=C\N(NC(=O)COC)C(=O)CCCCCCCCC

$$$$

  SciTegic03142313312D

 27 31  0  0  0  0            999 V2000
    2.5951   -3.0031    0.0000 C   0  0
    2.5973   -1.5031    0.0000 O   0  0
    1.2990   -0.7500    0.0000 C   0  0
    1.2990    0.7500    0.0000 C   0  0
    0.0000    1.5000    0.0000 C   0  0
   -1.2990    0.7500    0.0000 C   0  0
   -2.7248    1.2135    0.0000 C   0  0
   -3.1884    2.6408    0.0000 C   0  0
   -2.3980    3.8950    0.0000 N   0  0
   -3.3718    5.0359    0.0000 S   0  0
   -4.7578    4.4622    0.0000 C   0  0
   -6.0372    5.2466    0.0000 C   0  0
   -7.3533    4.5520    0.0000 C   0  0
   -8.4133    5.6134    0.0000 N   0  0
   -7.7316    6.9486    0.0000 C   0  0
   -8.2682    8.3493    0.0000 C   0  0
   -7.3235    9.5144    0.0000 C   0  0
   -7.8575   10.9170    0.0000 O   0  0
   -6.9111   12.0808    0.0000 C   0  0
   -5.8421    9.2788    0.0000 C   0  0
   -5.3054    7.8781    0.0000 C   0  0
   -6.2502    6.7130    0.0000 C   0  0
   -4.6405    2.9668    0.0000 N   0  0
   -3.6065    0.0000    0.0000 C   0  0
   -2.7248   -1.2135    0.0000 N   0  0
   -1.2990   -0.7500    0.0000 C   0  0
    0.0000   -1.5000    0.0000 C   0  0
  1  2  1  0
  2  3  1  0
  3  4  2  0
  4  5  1  0
  5  6  2  0
  6  7  1  0
  7  8  1  0
  8  9  2  0
  9 10  1  0
 10 11  1  0
 11 12  1  0
 12 13  2  0
 13 14  1  0
 14 15  1  0
 15 16  2  0
 16 17  1  0
 17 18  1  0
 18 19  1  0
 17 20  2  0
 20 21  1  0
 21 22  2  0
 22 12  1  0
 22 15  1  0
 11 23  2  0
 23  8  1  0
  7 24  2  0
 24 25  1  0
 25 26  1  0
 26  6  1  0
 26 27  2  0
 27  3  1  0
M  END
> <assay_chembl_id>
CHEMBL1839589

> <assay_description>
Cytotoxicity against human LNCAP cells

> <document_journal>
Bioorg Med Chem Lett

> <molecule_chembl_id>
CHEMBL1834035

> <standard_value>
35800

> <IC50_uM>
35.8

> <Activity>
No

> <Canonical_Smiles>
COc1ccc2c(-c3nsc(-c4c[nH]c5cc(OC)ccc45)n3)c[nH]c2c1

$$$$

  SciTegic03142313312D

 25 29  0  0  0  0            999 V2000
    1.2990   -0.7500    0.0000 C   0  0
    1.2990    0.7500    0.0000 C   0  0
    0.0000    1.5000    0.0000 C   0  0
   -1.2990    0.7500    0.0000 C   0  0
   -2.7248    1.2135    0.0000 C   0  0
   -3.1905    2.6376    0.0000 C   0  0
   -4.6589    2.9478    0.0000 C   0  0
   -5.2521    4.3116    0.0000 N   0  0
   -6.7434    4.1499    0.0000 S   0  0
   -7.0504    2.6816    0.0000 C   0  0
   -8.4158    2.0649    0.0000 C   0  0
   -8.5656    0.5715    0.0000 C   0  0
   -7.4421   -0.4030    0.0000 C   0  0
   -8.0431   -1.7774    0.0000 N   0  0
   -9.5351   -1.6303    0.0000 C   0  0
  -10.6431   -2.6414    0.0000 C   0  0
  -12.0728   -2.1873    0.0000 C   0  0
  -12.3944   -0.7222    0.0000 C   0  0
  -11.2863    0.2889    0.0000 C   0  0
   -9.8567   -0.1652    0.0000 C   0  0
   -5.7489    1.9359    0.0000 N   0  0
   -3.6065    0.0000    0.0000 C   0  0
   -2.7248   -1.2135    0.0000 N   0  0
   -1.2990   -0.7500    0.0000 C   0  0
    0.0000   -1.5000    0.0000 C   0  0
  1  2  2  0
  2  3  1  0
  3  4  2  0
  4  5  1  0
  5  6  1  0
  6  7  1  0
  7  8  2  0
  8  9  1  0
  9 10  1  0
 10 11  1  0
 11 12  1  0
 12 13  2  0
 13 14  1  0
 14 15  1  0
 15 16  2  0
 16 17  1  0
 17 18  2  0
 18 19  1  0
 19 20  2  0
 20 12  1  0
 20 15  1  0
 10 21  2  0
 21  7  1  0
  5 22  2  0
 22 23  1  0
 23 24  1  0
 24  4  1  0
 24 25  2  0
 25  1  1  0
M  END
> <assay_chembl_id>
CHEMBL1839589

> <assay_description>
Cytotoxicity against human LNCAP cells

> <document_journal>
Bioorg Med Chem Lett

> <molecule_chembl_id>
CHEMBL1834038

> <standard_value>
43300

> <IC50_uM>
43.3

> <Activity>
No

> <Canonical_Smiles>
c1ccc2c(Cc3nsc(Cc4c[nH]c5ccccc45)n3)c[nH]c2c1

$$$$

  SciTegic03142313312D

 25 29  0  0  0  0            999 V2000
    2.5981   -1.5000    0.0000 Br  0  0
    1.2990   -0.7500    0.0000 C   0  0
    1.2990    0.7500    0.0000 C   0  0
    0.0000    1.5000    0.0000 C   0  0
   -1.2990    0.7500    0.0000 C   0  0
   -2.7248    1.2135    0.0000 C   0  0
   -3.1884    2.6408    0.0000 C   0  0
   -2.3980    3.8950    0.0000 N   0  0
   -3.3718    5.0359    0.0000 S   0  0
   -4.7578    4.4622    0.0000 C   0  0
   -6.0372    5.2466    0.0000 C   0  0
   -7.3533    4.5520    0.0000 C   0  0
   -8.4133    5.6134    0.0000 N   0  0
   -7.7316    6.9486    0.0000 C   0  0
   -8.2682    8.3493    0.0000 C   0  0
   -7.3235    9.5144    0.0000 C   0  0
   -7.8601   10.9151    0.0000 Br  0  0
   -5.8421    9.2788    0.0000 C   0  0
   -5.3054    7.8781    0.0000 C   0  0
   -6.2502    6.7130    0.0000 C   0  0
   -4.6405    2.9668    0.0000 N   0  0
   -3.6065    0.0000    0.0000 C   0  0
   -2.7248   -1.2135    0.0000 N   0  0
   -1.2990   -0.7500    0.0000 C   0  0
    0.0000   -1.5000    0.0000 C   0  0
  1  2  1  0
  2  3  2  0
  3  4  1  0
  4  5  2  0
  5  6  1  0
  6  7  1  0
  7  8  2  0
  8  9  1  0
  9 10  1  0
 10 11  1  0
 11 12  2  0
 12 13  1  0
 13 14  1  0
 14 15  2  0
 15 16  1  0
 16 17  1  0
 16 18  2  0
 18 19  1  0
 19 20  2  0
 20 11  1  0
 20 14  1  0
 10 21  2  0
 21  7  1  0
  6 22  2  0
 22 23  1  0
 23 24  1  0
 24  5  1  0
 24 25  2  0
 25  2  1  0
M  END
> <assay_chembl_id>
CHEMBL1839589

> <assay_description>
Cytotoxicity against human LNCAP cells

> <document_journal>
Bioorg Med Chem Lett

> <molecule_chembl_id>
CHEMBL1834034

> <standard_value>
80100

> <IC50_uM>
80.1

> <Activity>
No

> <Canonical_Smiles>
Brc1ccc2c(-c3nsc(-c4c[nH]c5cc(Br)ccc45)n3)c[nH]c2c1

$$$$

  SciTegic03142313312D

 27 26  0  0  1  0            999 V2000
    0.0007    0.0004    0.0000 C   0  0
    1.3000    0.7500    0.0000 C   0  0
    2.6000    0.0000    0.0000 C   0  0
    3.9000    0.7500    0.0000 C   0  0
    5.2000    0.0000    0.0000 C   0  0
    6.5000    0.7500    0.0000 C   0  0
    7.7999    0.0000    0.0000 C   0  0
    7.8014   -1.5008    0.0000 C   0  0
    9.1014   -2.2508    0.0000 C   0  0
    9.1028   -3.7516    0.0000 C   0  0
    7.8042   -4.5041    0.0000 C   0  0
    7.8057   -6.0049    0.0000 C   0  0
    6.5071   -6.7574    0.0000 C   0  0
    6.5085   -8.2582    0.0000 C   0  0
    5.2100   -9.0107    0.0000 C   0  0
    5.2114  -10.5115    0.0000 C   0  0
    3.9128  -11.2640    0.0000 C   0  0
    3.9143  -12.7648    0.0000 C   0  0
    5.2142  -13.5132    0.0000 O   0  0
    2.6157  -13.5173    0.0000 C   0  0
    2.6171  -15.0181    0.0000 C   0  0  1  0  0  0
    3.9171  -15.7665    0.0000 O   0  0
    1.3186  -15.7706    0.0000 C   0  0
    1.3200  -17.2714    0.0000 O   0  0
    0.0214  -18.0239    0.0000 C   0  0
   -1.2786  -17.2755    0.0000 C   0  0
    0.0229  -19.5239    0.0000 O   0  0
  1  2  1  0
  2  3  1  0
  3  4  1  0
  4  5  1  0
  5  6  1  0
  6  7  2  0
  7  8  1  0
  8  9  1  0
  9 10  2  0
 10 11  1  0
 11 12  1  0
 12 13  1  0
 13 14  1  0
 14 15  1  0
 15 16  1  0
 16 17  1  0
 17 18  1  0
 18 19  2  0
 18 20  1  0
 20 21  1  0
 21 22  1  1
 21 23  1  0
 23 24  1  0
 24 25  1  0
 25 26  1  0
 25 27  2  0
M  END
> <assay_chembl_id>
CHEMBL1925687

> <assay_description>
Cytotoxicity against human LNCAP cells expressing AR, wild type p53, BimEL, BimL and BimS assessed as growth inhibition after 24 hrs by MTS assay

> <document_journal>
Bioorg Med Chem

> <molecule_chembl_id>
CHEMBL465370

> <standard_value>
22000

> <IC50_uM>
22

> <Activity>
No

> <Canonical_Smiles>
CCCCC/C=C\C/C=C\CCCCCCCC(=O)C[C@@H](O)COC(C)=O

$$$$

  SciTegic03142313312D

 31 35  0  0  0  0            999 V2000
    2.5951   -3.0031    0.0000 C   0  0
    2.5973   -1.5031    0.0000 O   0  0
    1.2990   -0.7500    0.0000 C   0  0
    1.2990    0.7500    0.0000 C   0  0
    0.0000    1.5000    0.0000 C   0  0
   -1.2990    0.7500    0.0000 C   0  0
   -2.7248    1.2135    0.0000 N   0  0
   -3.6065    0.0000    0.0000 C   0  0
   -5.1047   -0.0031    0.0000 C   0  0
   -5.8570    1.2946    0.0000 O   0  0
   -5.8532   -1.3040    0.0000 C   0  0
   -7.3336   -1.4470    0.0000 C   0  0
   -7.6399   -2.9146    0.0000 C   0  0
   -8.9363   -3.6692    0.0000 C   0  0
  -10.2402   -2.9260    0.0000 N   0  0
  -11.5363   -3.6828    0.0000 C   0  0
  -12.8406   -2.9419    0.0000 C   0  0
  -14.1343   -3.7010    0.0000 C   0  0
  -14.1239   -5.2009    0.0000 C   0  0
  -15.4177   -5.9599    0.0000 F   0  0
  -12.8197   -5.9419    0.0000 C   0  0
  -12.8092   -7.4418    0.0000 Cl  0  0
  -11.5259   -5.1828    0.0000 C   0  0
   -8.9310   -5.1692    0.0000 N   0  0
   -7.6294   -5.9146    0.0000 C   0  0
   -6.3330   -5.1600    0.0000 N   0  0
   -6.3382   -3.6601    0.0000 C   0  0
   -5.2275   -2.6532    0.0000 S   0  0
   -2.7248   -1.2135    0.0000 C   0  0
   -1.2990   -0.7500    0.0000 C   0  0
    0.0000   -1.5000    0.0000 C   0  0
  1  2  1  0
  2  3  1  0
  3  4  2  0
  4  5  1  0
  5  6  2  0
  6  7  1  0
  7  8  1  0
  8  9  1  0
  9 10  2  0
  9 11  1  0
 11 12  2  0
 12 13  1  0
 13 14  2  0
 14 15  1  0
 15 16  1  0
 16 17  2  0
 17 18  1  0
 18 19  2  0
 19 20  1  0
 19 21  1  0
 21 22  1  0
 21 23  2  0
 23 16  1  0
 14 24  1  0
 24 25  2  0
 25 26  1  0
 26 27  2  0
 27 13  1  0
 27 28  1  0
 28 11  1  0
  8 29  2  0
 29 30  1  0
 30  6  1  0
 30 31  2  0
 31  3  1  0
M  END
> <assay_chembl_id>
CHEMBL1932411

> <assay_description>
Cytotoxicity against human LNCAP cells after 4 days by propidium iodide staining-based fluorometric analysis

> <document_journal>
Bioorg Med Chem

> <molecule_chembl_id>
CHEMBL1928312

> <standard_value>
32500

> <IC50_uM>
32.5

> <Activity>
No

> <Canonical_Smiles>
COc1ccc2[nH]c(C(=O)c3cc4c(Nc5ccc(F)c(Cl)c5)ncnc4s3)cc2c1

$$$$

  SciTegic03142313312D

 36 40  0  0  0  0            999 V2000
   -1.2776    4.6992    0.0000 C   0  0
    0.2175    4.8196    0.0000 N   0  0
    0.8608    6.1747    0.0000 C   0  0
    2.3560    6.2951    0.0000 C   0  0
    3.2080    5.0605    0.0000 N   0  0
    4.7041    5.1786    0.0000 C   0  0
    5.3495    6.5326    0.0000 C   0  0
    6.8449    6.6507    0.0000 C   0  0
    7.6948    5.4147    0.0000 C   0  0
    9.1907    5.5359    0.0000 O   0  0
    9.8345    6.8916    0.0000 C   0  0
   11.3296    7.0128    0.0000 F   0  0
    8.9824    8.1261    0.0000 F   0  0
   10.4773    8.2469    0.0000 F   0  0
    7.0494    4.0606    0.0000 C   0  0
    7.8972    2.8222    0.0000 N   0  0
    7.2495    1.4683    0.0000 C   0  0
    8.0952    0.2294    0.0000 N   0  0
    7.4450   -1.1224    0.0000 C   0  0
    5.9493   -1.2353    0.0000 C   0  0
    5.1072    0.0000    0.0000 C   0  0
    3.6065    0.0000    0.0000 C   0  0
    2.7248   -1.2135    0.0000 C   0  0
    1.2990   -0.7500    0.0000 C   0  0
    1.2990    0.7500    0.0000 C   0  0
    2.7248    1.2135    0.0000 N   0  0
    3.1882    2.6402    0.0000 C   0  0
    0.0000    1.5000    0.0000 C   0  0
   -1.2990    0.7500    0.0000 C   0  0
   -1.2990   -0.7500    0.0000 N   0  0
    0.0000   -1.5000    0.0000 C   0  0
    0.0000   -3.0000    0.0000 O   0  0
    5.7538    1.3554    0.0000 N   0  0
    5.5540    3.9426    0.0000 C   0  0
    2.5646    3.7054    0.0000 C   0  0
    1.0694    3.5850    0.0000 C   0  0
  1  2  1  0
  2  3  1  0
  3  4  1  0
  4  5  1  0
  5  6  1  0
  6  7  2  0
  7  8  1  0
  8  9  2  0
  9 10  1  0
 10 11  1  0
 11 12  1  0
 11 13  1  0
 11 14  1  0
  9 15  1  0
 15 16  1  0
 16 17  1  0
 17 18  2  0
 18 19  1  0
 19 20  2  0
 20 21  1  0
 21 22  1  0
 22 23  2  0
 23 24  1  0
 24 25  2  0
 25 26  1  0
 26 22  1  0
 26 27  1  0
 25 28  1  0
 28 29  1  0
 29 30  1  0
 30 31  1  0
 31 24  1  0
 31 32  2  0
 21 33  2  0
 33 17  1  0
 15 34  2  0
 34  6  1  0
  5 35  1  0
 35 36  1  0
 36  2  1  0
M  END
> <assay_chembl_id>
CHEMBL1936635

> <assay_description>
Antiproliferative activity against human LNCAP cells

> <document_journal>
Bioorg Med Chem Lett

> <molecule_chembl_id>
CHEMBL1933582

> <standard_value>
26

> <IC50_uM>
0.026

> <Activity>
Yes

> <Canonical_Smiles>
CN1CCN(c2ccc(OC(F)(F)F)c(Nc3nccc(-c4cc5c(n4C)CCNC5=O)n3)c2)CC1

$$$$

  SciTegic03142313312D

 34 37  0  0  0  0            999 V2000
    2.5981   -1.5000    0.0000 C   0  0
    1.2990   -0.7500    0.0000 N   0  0
    1.2990    0.7500    0.0000 C   0  0
    0.0000    1.5000    0.0000 C   0  0
   -1.2990    0.7500    0.0000 N   0  0
   -2.5987    1.5004    0.0000 C   0  0
   -2.6012    3.0004    0.0000 C   0  0
   -3.9015    3.7484    0.0000 C   0  0
   -5.1993    2.9963    0.0000 C   0  0
   -6.4987    3.7473    0.0000 O   0  0
   -6.4990    5.2481    0.0000 C   0  0
   -7.7976    5.9987    0.0000 F   0  0
   -5.1998    5.9979    0.0000 F   0  0
   -6.4985    6.7481    0.0000 F   0  0
   -5.1969    1.4963    0.0000 C   0  0
   -6.4939    0.7411    0.0000 N   0  0
   -6.4894   -0.7597    0.0000 C   0  0
   -7.7846   -1.5163    0.0000 N   0  0
   -7.7770   -3.0163    0.0000 C   0  0
   -6.4742   -3.7597    0.0000 C   0  0
   -5.1790   -3.0032    0.0000 C   0  0
   -3.8755   -3.7470    0.0000 C   0  0
   -2.5283   -3.1170    0.0000 C   0  0
   -1.5172   -4.2251    0.0000 C   0  0
   -0.0279   -4.0617    0.0000 C   0  0
    0.5755   -2.6884    0.0000 N   0  0
    0.8601   -5.2706    0.0000 O   0  0
   -2.2586   -5.5290    0.0000 C   0  0
   -3.7278   -5.2269    0.0000 N   0  0
   -4.8418   -6.2314    0.0000 C   0  0
   -5.1866   -1.5032    0.0000 N   0  0
   -3.8967    0.7484    0.0000 C   0  0
   -1.2990   -0.7500    0.0000 C   0  0
    0.0000   -1.5000    0.0000 C   0  0
  1  2  1  0
  2  3  1  0
  3  4  1  0
  4  5  1  0
  5  6  1  0
  6  7  2  0
  7  8  1  0
  8  9  2  0
  9 10  1  0
 10 11  1  0
 11 12  1  0
 11 13  1  0
 11 14  1  0
  9 15  1  0
 15 16  1  0
 16 17  1  0
 17 18  2  0
 18 19  1  0
 19 20  2  0
 20 21  1  0
 21 22  1  0
 22 23  2  0
 23 24  1  0
 24 25  1  0
 25 26  1  0
 25 27  2  0
 24 28  2  0
 28 29  1  0
 29 22  1  0
 29 30  1  0
 21 31  2  0
 31 17  1  0
 15 32  2  0
 32  6  1  0
  5 33  1  0
 33 34  1  0
 34  2  1  0
M  END
> <assay_chembl_id>
CHEMBL1936635

> <assay_description>
Antiproliferative activity against human LNCAP cells

> <document_journal>
Bioorg Med Chem Lett

> <molecule_chembl_id>
CHEMBL1933576

> <standard_value>
280

> <IC50_uM>
0.28

> <Activity>
Yes

> <Canonical_Smiles>
CN1CCN(c2ccc(OC(F)(F)F)c(Nc3nccc(-c4cc(C(N)=O)cn4C)n3)c2)CC1

$$$$

  SciTegic03142313312D

 32 36  0  0  0  0            999 V2000
    0.7077   -8.3622    0.0000 O   0  0
   -0.7600   -8.0526    0.0000 C   0  0
   -1.2256   -6.6258    0.0000 N   0  0
   -0.2234   -5.5086    0.0000 N   0  0
   -0.6890   -4.0818    0.0000 C   0  0
   -2.1547   -3.7712    0.0000 C   0  0
   -3.2669   -4.7776    0.0000 C   0  0
   -4.5678   -4.0309    0.0000 N   0  0
   -5.9339   -4.6462    0.0000 C   0  0
   -6.0852   -6.1394    0.0000 C   0  0
   -7.4520   -6.7575    0.0000 C   0  0
   -7.6001   -8.2501    0.0000 C   0  0
   -6.3816   -9.1248    0.0000 C   0  0
   -6.5298  -10.6175    0.0000 Cl  0  0
   -5.0148   -8.5068    0.0000 C   0  0
   -4.8666   -7.0142    0.0000 C   0  0
   -4.2595   -2.5637    0.0000 C   0  0
   -5.1442   -1.3524    0.0000 C   0  0
   -4.5375    0.0195    0.0000 C   0  0
   -5.4222    1.2308    0.0000 F   0  0
   -3.0461    0.1799    0.0000 C   0  0
   -2.1614   -1.0314    0.0000 C   0  0
   -2.7681   -2.4032    0.0000 C   0  0
   -1.7622   -9.1698    0.0000 C   0  0
   -3.2393   -8.9968    0.0000 C   0  0
   -3.8495  -10.3671    0.0000 N   0  0
   -2.7352  -11.3701    0.0000 C   0  0
   -2.7352  -12.8701    0.0000 C   0  0
   -1.4362  -13.6201    0.0000 C   0  0
   -0.1371  -12.8701    0.0000 C   0  0
   -0.1371  -11.3701    0.0000 C   0  0
   -1.4361  -10.6201    0.0000 C   0  0
  1  2  2  0
  2  3  1  0
  3  4  1  0
  4  5  2  0
  5  6  1  0
  6  7  2  0
  7  8  1  0
  8  9  1  0
  9 10  1  0
 10 11  2  0
 11 12  1  0
 12 13  2  0
 13 14  1  0
 13 15  1  0
 15 16  2  0
 16 10  1  0
  8 17  1  0
 17 18  2  0
 18 19  1  0
 19 20  1  0
 19 21  2  0
 21 22  1  0
 22 23  2  0
 23  6  1  0
 23 17  1  0
  2 24  1  0
 24 25  2  0
 25 26  1  0
 26 27  1  0
 27 28  2  0
 28 29  1  0
 29 30  2  0
 30 31  1  0
 31 32  2  0
 32 24  1  0
 32 27  1  0
M  END
> <assay_chembl_id>
CHEMBL1936655

> <assay_description>
Cytotoxicity against human LNCAP cells

> <document_journal>
Bioorg Med Chem Lett

> <molecule_chembl_id>
CHEMBL1933942

> <standard_value>
55200

> <IC50_uM>
55.2

> <Activity>
No

> <Canonical_Smiles>
O=C(N/N=C\c1cn(Cc2ccc(Cl)cc2)c2cc(F)ccc12)c1c[nH]c2ccccc12

$$$$

  SciTegic03142313312D

 33 37  0  0  0  0            999 V2000
    0.7077   -8.3622    0.0000 O   0  0
   -0.7600   -8.0526    0.0000 C   0  0
   -1.2256   -6.6258    0.0000 N   0  0
   -0.2234   -5.5086    0.0000 N   0  0
   -0.6890   -4.0818    0.0000 C   0  0
   -2.1547   -3.7712    0.0000 C   0  0
   -3.2669   -4.7776    0.0000 C   0  0
   -4.5678   -4.0309    0.0000 N   0  0
   -5.9339   -4.6462    0.0000 C   0  0
   -6.0852   -6.1394    0.0000 C   0  0
   -7.4520   -6.7575    0.0000 C   0  0
   -7.6001   -8.2501    0.0000 C   0  0
   -6.3816   -9.1248    0.0000 C   0  0
   -6.5298  -10.6175    0.0000 Cl  0  0
   -5.0148   -8.5068    0.0000 C   0  0
   -4.8666   -7.0142    0.0000 C   0  0
   -4.2595   -2.5637    0.0000 C   0  0
   -5.1442   -1.3524    0.0000 C   0  0
   -4.5375    0.0195    0.0000 C   0  0
   -5.4222    1.2308    0.0000 F   0  0
   -3.0461    0.1799    0.0000 C   0  0
   -2.1614   -1.0314    0.0000 C   0  0
   -2.7681   -2.4032    0.0000 C   0  0
   -1.7622   -9.1698    0.0000 C   0  0
   -3.2393   -8.9968    0.0000 C   0  0
   -3.8495  -10.3671    0.0000 N   0  0
   -2.7352  -11.3701    0.0000 C   0  0
   -2.7352  -12.8701    0.0000 C   0  0
   -1.4362  -13.6201    0.0000 C   0  0
   -0.1371  -12.8701    0.0000 C   0  0
    1.1619  -13.6201    0.0000 Br  0  0
   -0.1371  -11.3701    0.0000 C   0  0
   -1.4361  -10.6201    0.0000 C   0  0
  1  2  2  0
  2  3  1  0
  3  4  1  0
  4  5  2  0
  5  6  1  0
  6  7  2  0
  7  8  1  0
  8  9  1  0
  9 10  1  0
 10 11  2  0
 11 12  1  0
 12 13  2  0
 13 14  1  0
 13 15  1  0
 15 16  2  0
 16 10  1  0
  8 17  1  0
 17 18  2  0
 18 19  1  0
 19 20  1  0
 19 21  2  0
 21 22  1  0
 22 23  2  0
 23  6  1  0
 23 17  1  0
  2 24  1  0
 24 25  2  0
 25 26  1  0
 26 27  1  0
 27 28  2  0
 28 29  1  0
 29 30  2  0
 30 31  1  0
 30 32  1  0
 32 33  2  0
 33 24  1  0
 33 27  1  0
M  END
> <assay_chembl_id>
CHEMBL1936655

> <assay_description>
Cytotoxicity against human LNCAP cells

> <document_journal>
Bioorg Med Chem Lett

> <molecule_chembl_id>
CHEMBL1933944

> <standard_value>
24800

> <IC50_uM>
24.8

> <Activity>
No

> <Canonical_Smiles>
O=C(N/N=C\c1cn(Cc2ccc(Cl)cc2)c2cc(F)ccc12)c1c[nH]c2ccc(Br)cc12

$$$$

  SciTegic03142313312D

 32 36  0  0  0  0            999 V2000
    2.6531  -10.0886    0.0000 C   0  0
    1.1844   -9.7837    0.0000 O   0  0
    0.7130   -8.3588    0.0000 C   0  0
   -0.7552   -8.0517    0.0000 C   0  0
   -1.2234   -6.6267    0.0000 C   0  0
   -0.2234   -5.5086    0.0000 C   0  0
   -0.6890   -4.0818    0.0000 C   0  0
    0.3114   -2.9665    0.0000 N   0  0
    1.8032   -3.1233    0.0000 C   0  0
    2.4133   -1.7530    0.0000 C   0  0
    3.8794   -1.4442    0.0000 C   0  0
    4.8823   -2.5608    0.0000 N   0  0
    4.4177   -3.9879    0.0000 N   0  0
    5.4205   -5.1044    0.0000 C   0  0
    6.8880   -4.7939    0.0000 O   0  0
    4.9559   -6.5315    0.0000 C   0  0
    3.5350   -6.9707    0.0000 C   0  0
    3.5312   -8.4707    0.0000 N   0  0
    4.9560   -8.9373    0.0000 C   0  0
    5.5626  -10.3092    0.0000 C   0  0
    7.0540  -10.4697    0.0000 C   0  0
    7.9387   -9.2584    0.0000 C   0  0
    7.3321   -7.8865    0.0000 C   0  0
    5.8407   -7.7260    0.0000 C   0  0
    1.2990   -0.7500    0.0000 C   0  0
    1.2990    0.7500    0.0000 C   0  0
    0.0000    1.5000    0.0000 C   0  0
   -1.2990    0.7500    0.0000 C   0  0
   -1.2990   -0.7500    0.0000 C   0  0
    0.0000   -1.5000    0.0000 C   0  0
    1.2449   -5.8157    0.0000 C   0  0
    1.7131   -7.2408    0.0000 C   0  0
  1  2  1  0
  2  3  1  0
  3  4  2  0
  4  5  1  0
  5  6  2  0
  6  7  1  0
  7  8  1  0
  8  9  1  0
  9 10  2  0
 10 11  1  0
 11 12  2  0
 12 13  1  0
 13 14  1  0
 14 15  2  0
 14 16  1  0
 16 17  2  0
 17 18  1  0
 18 19  1  0
 19 20  2  0
 20 21  1  0
 21 22  2  0
 22 23  1  0
 23 24  2  0
 24 16  1  0
 24 19  1  0
 10 25  1  0
 25 26  2  0
 26 27  1  0
 27 28  2  0
 28 29  1  0
 29 30  2  0
 30 25  1  0
 30  8  1  0
  6 31  1  0
 31 32  2  0
 32  3  1  0
M  END
> <assay_chembl_id>
CHEMBL1936655

> <assay_description>
Cytotoxicity against human LNCAP cells

> <document_journal>
Bioorg Med Chem Lett

> <molecule_chembl_id>
CHEMBL1933945

> <standard_value>
31900

> <IC50_uM>
31.9

> <Activity>
No

> <Canonical_Smiles>
COc1ccc(Cn2cc(/C=N\NC(=O)c3c[nH]c4ccccc34)c3ccccc32)cc1

$$$$

  SciTegic03142313312D

 22 21  0  0  1  0            999 V2000
    0.0007    0.0004    0.0000 C   0  0
    1.3000    0.7500    0.0000 C   0  0
    2.6000    0.0000    0.0000 C   0  0
    3.9000    0.7500    0.0000 C   0  0
    5.2000    0.0000    0.0000 C   0  0
    6.5000    0.7500    0.0000 C   0  0
    7.7999    0.0000    0.0000 C   0  0
    9.0999    0.7500    0.0000 C   0  0
   10.3999    0.0000    0.0000 C   0  0
   11.6999    0.7500    0.0000 C   0  0
   12.9999    0.0000    0.0000 C   0  0
   14.2999    0.7500    0.0000 C   0  0
   15.5999    0.0000    0.0000 C   0  0
   16.8999    0.7500    0.0000 C   0  0  2  0  0  0
   16.8999    2.2500    0.0000 O   0  0
   18.1999    0.0000    0.0000 C   0  0
   19.4998    0.7500    0.0000 C   0  0  2  0  0  0
   19.4998    2.2500    0.0000 O   0  0
   20.7998    0.0000    0.0000 C   0  0  2  0  0  0
   20.7998   -1.5000    0.0000 C   0  0
   22.0998    0.7500    0.0000 N   0  0
   23.3991    0.0004    0.0000 C   0  0
  1  2  1  0
  2  3  1  0
  3  4  1  0
  4  5  1  0
  5  6  1  0
  6  7  1  0
  7  8  1  0
  8  9  1  0
  9 10  1  0
 10 11  1  0
 11 12  1  0
 12 13  1  0
 13 14  1  0
 14 15  1  6
 14 16  1  0
 16 17  1  0
 17 18  1  6
 17 19  1  0
 19 20  1  1
 19 21  1  0
 21 22  1  0
M  END
> <assay_chembl_id>
CHEMBL1953408

> <assay_description>
Cytotoxicity against human LNCAP cells after 24 hrs by WST-1 assay

> <document_journal>
ACS Med Chem Lett

> <molecule_chembl_id>
CHEMBL1951765

> <standard_value>
25000

> <IC50_uM>
25

> <Activity>
No

> <Canonical_Smiles>
CCCCCCCCCCCCC[C@H](O)C[C@H](O)[C@H](C)NC

$$$$

  SciTegic03142313312D

 21 20  0  0  1  0            999 V2000
    0.0007    0.0004    0.0000 C   0  0
    1.3000    0.7500    0.0000 C   0  0
    2.6000    0.0000    0.0000 C   0  0
    3.9000    0.7500    0.0000 C   0  0
    5.2000    0.0000    0.0000 C   0  0
    6.5000    0.7500    0.0000 C   0  0
    7.7999    0.0000    0.0000 C   0  0
    9.0999    0.7500    0.0000 C   0  0
   10.3999    0.0000    0.0000 C   0  0
   11.6999    0.7500    0.0000 C   0  0
   12.9999    0.0000    0.0000 C   0  0
   14.2999    0.7500    0.0000 C   0  0
   15.5999    0.0000    0.0000 C   0  0
   16.8999    0.7500    0.0000 C   0  0  1  0  0  0
   16.8999    2.2500    0.0000 O   0  0
   18.1999    0.0000    0.0000 C   0  0
   19.4998    0.7500    0.0000 C   0  0  1  0  0  0
   19.4998    2.2500    0.0000 O   0  0
   20.7998    0.0000    0.0000 C   0  0  2  0  0  0
   20.7998   -1.5000    0.0000 C   0  0
   22.0991    0.7496    0.0000 N   0  0
  1  2  1  0
  2  3  1  0
  3  4  1  0
  4  5  1  0
  5  6  1  0
  6  7  1  0
  7  8  1  0
  8  9  1  0
  9 10  1  0
 10 11  1  0
 11 12  1  0
 12 13  1  0
 13 14  1  0
 14 15  1  1
 14 16  1  0
 16 17  1  0
 17 18  1  1
 17 19  1  0
 19 20  1  1
 19 21  1  0
M  END
> <assay_chembl_id>
CHEMBL1953408

> <assay_description>
Cytotoxicity against human LNCAP cells after 24 hrs by WST-1 assay

> <document_journal>
ACS Med Chem Lett

> <molecule_chembl_id>
CHEMBL1951764

> <standard_value>
50000

> <IC50_uM>
50

> <Activity>
No

> <Canonical_Smiles>
CCCCCCCCCCCCC[C@@H](O)C[C@@H](O)[C@H](C)N

$$$$

  SciTegic03142313312D

 25 27  0  0  0  0            999 V2000
    5.1937   -3.0093    0.0000 C   0  0
    3.8933   -3.7570    0.0000 C   0  0  3  0  0  0
    3.8962   -2.2570    0.0000 O   0  0
    2.5951   -3.0039    0.0000 C   0  0
    2.5973   -1.5031    0.0000 S   0  0
    1.2990   -0.7500    0.0000 C   0  0
    1.2990    0.7500    0.0000 C   0  0
    0.0000    1.5000    0.0000 C   0  0
   -1.2990    0.7500    0.0000 C   0  0
   -2.5981    1.5000    0.0000 Cl  0  0
   -1.2990   -0.7500    0.0000 C   0  0
    0.0000   -1.5000    0.0000 C   0  0
    3.8912   -5.2578    0.0000 C   0  0
    5.1035   -6.1193    0.0000 N   0  0
    4.6379   -7.5452    0.0000 C   0  0
    5.5183   -8.7606    0.0000 C   0  0
    7.0128   -8.7179    0.0000 C   0  0
    7.7988   -9.9954    0.0000 C   0  0
    7.0854  -11.3149    0.0000 C   0  0
    7.8715  -12.5925    0.0000 F   0  0
    5.5860  -11.3569    0.0000 C   0  0
    4.8727  -12.6764    0.0000 Cl  0  0
    4.8000  -10.0793    0.0000 C   0  0
    3.1379   -7.5431    0.0000 N   0  0
    2.6764   -6.1158    0.0000 O   0  0
  2  1  1  4
  2  3  1  0
  2  4  1  0
  4  5  1  0
  5  6  1  0
  6  7  2  0
  7  8  1  0
  8  9  2  0
  9 10  1  0
  9 11  1  0
 11 12  2  0
 12  6  1  0
  2 13  1  0
 13 14  2  0
 14 15  1  0
 15 16  1  0
 16 17  2  0
 17 18  1  0
 18 19  2  0
 19 20  1  0
 19 21  1  0
 21 22  1  0
 21 23  2  0
 23 16  1  0
 15 24  2  0
 24 25  1  0
 25 13  1  0
M  END
> <assay_chembl_id>
CHEMBL1960761

> <assay_description>
Cytotoxicity against human androgen-dependent LNCAP cells by MTT assay

> <document_journal>
Bioorg Med Chem Lett

> <molecule_chembl_id>
CHEMBL1955954

> <standard_value>
26400

> <IC50_uM>
26.4

> <Activity>
No

> <Canonical_Smiles>
CC(O)(CSc1ccc(Cl)cc1)c1nc(-c2ccc(F)c(Cl)c2)no1

$$$$

  SciTegic03142313312D

 30 32  0  0  0  0            999 V2000
    5.1937   -3.0093    0.0000 C   0  0
    3.8933   -3.7570    0.0000 C   0  0  3  0  0  0
    3.8962   -2.2570    0.0000 O   0  0
    2.5951   -3.0039    0.0000 C   0  0
    2.5973   -1.5031    0.0000 S   0  0
    1.2990   -0.7500    0.0000 C   0  0
    1.2990    0.7500    0.0000 C   0  0
    0.0000    1.5000    0.0000 C   0  0
   -1.2990    0.7500    0.0000 C   0  0
   -2.5981    1.5000    0.0000 Br  0  0
   -1.2990   -0.7500    0.0000 C   0  0
    0.0000   -1.5000    0.0000 C   0  0
    3.8912   -5.2578    0.0000 C   0  0
    5.1035   -6.1193    0.0000 N   0  0
    4.6379   -7.5452    0.0000 C   0  0
    5.5183   -8.7606    0.0000 C   0  0
    7.0128   -8.7179    0.0000 C   0  0
    7.7988   -9.9954    0.0000 C   0  0
    7.0854  -11.3149    0.0000 C   0  0
    7.8745  -12.5916    0.0000 N   0  3
    9.3739  -12.5475    0.0000 O   0  0
    7.1635  -13.9123    0.0000 O   0  5
    5.5860  -11.3569    0.0000 C   0  0
    4.8723  -12.6771    0.0000 C   0  0
    5.6575  -13.9552    0.0000 F   0  0
    3.3728  -12.7186    0.0000 F   0  0
    4.1583  -13.9963    0.0000 F   0  0
    4.8000  -10.0793    0.0000 C   0  0
    3.1379   -7.5431    0.0000 N   0  0
    2.6764   -6.1158    0.0000 O   0  0
  2  1  1  4
  2  3  1  0
  2  4  1  0
  4  5  1  0
  5  6  1  0
  6  7  2  0
  7  8  1  0
  8  9  2  0
  9 10  1  0
  9 11  1  0
 11 12  2  0
 12  6  1  0
  2 13  1  0
 13 14  2  0
 14 15  1  0
 15 16  1  0
 16 17  2  0
 17 18  1  0
 18 19  2  0
 19 20  1  0
 20 21  2  0
 20 22  1  0
 19 23  1  0
 23 24  1  0
 24 25  1  0
 24 26  1  0
 24 27  1  0
 23 28  2  0
 28 16  1  0
 15 29  2  0
 29 30  1  0
 30 13  1  0
M  CHG  2  20   1  22  -1
M  END
> <assay_chembl_id>
CHEMBL1960761

> <assay_description>
Cytotoxicity against human androgen-dependent LNCAP cells by MTT assay

> <document_journal>
Bioorg Med Chem Lett

> <molecule_chembl_id>
CHEMBL1955941

> <standard_value>
40000

> <IC50_uM>
40

> <Activity>
No

> <Canonical_Smiles>
CC(O)(CSc1ccc(Br)cc1)c1nc(-c2ccc([N+](=O)[O-])c(C(F)(F)F)c2)no1

$$$$

  SciTegic03142313312D

 25 28  0  0  0  0            999 V2000
    4.8096   -4.6665    0.0000 C   0  0
    4.2013   -3.2954    0.0000 C   0  0
    2.7345   -2.9814    0.0000 C   0  0
    2.5987   -1.5004    0.0000 N   0  0
    1.2990   -0.7500    0.0000 C   0  0
    1.2990    0.7500    0.0000 C   0  0
    0.0000    1.5000    0.0000 C   0  0
   -1.2990    0.7500    0.0000 C   0  0
   -2.5981    1.5000    0.0000 C   0  0
   -2.5981    3.0000    0.0000 C   0  0
   -3.8971    0.7500    0.0000 N   0  0
   -3.8971   -0.7500    0.0000 C   0  0
   -5.1961   -1.5000    0.0000 N   0  0
   -2.5981   -1.5000    0.0000 N   0  0
   -1.2990   -0.7500    0.0000 C   0  0
    0.0000   -1.5000    0.0000 C   0  0
    3.9504   -0.8818    0.0000 C   0  0
    4.9525   -1.9980    0.0000 C   0  0
    6.4202   -1.6882    0.0000 C   0  0
    7.4223   -2.8043    0.0000 O   0  0
    6.8858   -0.2623    0.0000 C   0  0
    5.8837    0.8539    0.0000 C   0  0
    7.3582    1.1289    0.0000 C   0  0
    4.8556    1.9462    0.0000 C   0  0
    4.4160    0.5441    0.0000 C   0  0
  1  2  1  0
  2  3  2  0
  3  4  1  0
  4  5  1  0
  5  6  2  0
  6  7  1  0
  7  8  2  0
  8  9  1  0
  9 10  1  0
  9 11  2  0
 11 12  1  0
 12 13  1  0
 12 14  2  0
 14 15  1  0
 15  8  1  0
 15 16  2  0
 16  5  1  0
  4 17  1  0
 17 18  2  0
 18  2  1  0
 18 19  1  0
 19 20  2  0
 19 21  1  0
 21 22  1  0
 22 23  1  0
 22 24  1  0
 22 25  1  0
 25 17  1  0
M  END
> <assay_chembl_id>
CHEMBL2016165

> <assay_description>
Antiproliferative activity against human LNCAP cells after 72 to 144 hrs

> <document_journal>
Bioorg Med Chem Lett

> <molecule_chembl_id>
CHEMBL2011854

> <standard_value>
15

> <IC50_uM>
0.015

> <Activity>
Yes

> <Canonical_Smiles>
Cc1cn(-c2ccc3c(C)nc(N)nc3c2)c2c1C(=O)CC(C)(C)C2

$$$$

  SciTegic03142313312D

 41 47  0  0  1  0            999 V2000
    2.5951   -3.0031    0.0000 C   0  0
    2.5973   -1.5031    0.0000 O   0  0
    1.2990   -0.7500    0.0000 C   0  0
    1.2990    0.7500    0.0000 C   0  0
    0.0000    1.5000    0.0000 C   0  0
    0.0000    3.0000    0.0000 C   0  0
   -1.2991    3.7500    0.0000 C   0  0
   -1.2991    5.2500    0.0000 C   0  0
   -2.5981    6.0000    0.0000 C   0  0
   -2.5981    7.5000    0.0000 O   0  0
   -3.8971    5.2500    0.0000 C   0  0
   -3.8971    3.7500    0.0000 C   0  0
   -5.1984    3.0022    0.0000 O   0  0
   -6.4964    3.7541    0.0000 C   0  0
   -2.5981    3.0000    0.0000 C   0  0
   -2.5981    1.5000    0.0000 C   0  0
   -3.8971    0.7500    0.0000 C   0  0
   -5.1984    1.4977    0.0000 O   0  0
   -6.4964    0.7459    0.0000 C   0  0
   -3.8971   -0.7500    0.0000 C   0  0
   -2.5981   -1.5000    0.0000 C   0  0
   -2.5981   -3.0000    0.0000 O   0  0
   -1.2990   -0.7500    0.0000 C   0  0
   -1.2990    0.7500    0.0000 C   0  0
    0.0000   -1.5000    0.0000 C   0  0
    0.0000   -3.0000    0.0000 O   0  0
    0.0000    6.0000    0.0000 C   0  0
    0.0000    7.5000    0.0000 O   0  0
    1.2990    5.2500    0.0000 C   0  0  1  0  0  0
    2.5972    6.0031    0.0000 O   0  0
    2.5951    7.5031    0.0000 C   0  0
    1.2990    3.7500    0.0000 C   0  0  1  0  0  0
    0.0000    3.0000    0.0000 C   0  0
    0.0000    1.5000    0.0000 C   0  0  2  0  0  0
   -1.2990    0.7500    0.0000 C   0  0
    1.2990    0.7500    0.0000 O   0  0
    2.5981    1.5000    0.0000 C   0  0  1  0  0  0
    3.8971    0.7500    0.0000 O   0  0
    2.5981    3.0000    0.0000 C   0  0  1  0  0  0
    2.5626    4.4996    0.0000 C   0  0
    3.8791    2.2197    0.0000 O   0  0
  1  2  1  0
  2  3  1  0
  3  4  2  0
  4  5  1  0
  5  6  2  0
  6  7  1  0
  7  8  2  0
  8  9  1  0
  9 10  1  0
  9 11  2  0
 11 12  1  0
 12 13  1  0
 13 14  1  0
 12 15  2  0
 15  7  1  0
 15 16  1  0
 16 17  2  0
 17 18  1  0
 18 19  1  0
 17 20  1  0
 20 21  2  0
 21 22  1  0
 21 23  1  0
 23 24  2  0
 24  5  1  0
 24 16  1  0
 23 25  1  0
 25  3  1  0
 25 26  2  0
  8 27  1  0
 27 28  2  0
 27 29  1  0
 29 30  1  1
 30 31  1  0
 29 32  1  0
 32  6  1  0
 32 33  1  1
 33 34  1  0
 34 35  1  1
 34 36  1  0
 36 37  1  0
 37  4  1  0
 37 38  1  6
 37 39  1  0
 39 32  1  0
 39 40  1  6
 39 41  1  0
M  END
> <assay_chembl_id>
CHEMBL2014052

> <assay_description>
Cytotoxicity against human LNCAP cells after 24 hrs by MTT assay

> <document_journal>
J Nat Prod

> <molecule_chembl_id>
CHEMBL2011657

> <standard_value>
24920

> <IC50_uM>
24.92

> <Activity>
No

> <Canonical_Smiles>
COC1=C2c3c4c5c(c(O)cc(OC)c5c5c(OC)cc(O)c(c35)C1=O)C(=O)[C@@H](OC)[C@@]41C[C@H](C)O[C@]2(O)[C@]1(C)O

$$$$

  SciTegic03142313312D

 38 42  0  0  1  0            999 V2000
    3.8983   -0.7459    0.0000 C   0  0
    2.6003   -1.4977    0.0000 O   0  0
    1.2990   -0.7500    0.0000 C   0  0
    1.2990    0.7500    0.0000 C   0  0
    0.0000    1.5000    0.0000 C   0  0
   -1.2990    0.7500    0.0000 C   0  0
   -1.2990   -0.7500    0.0000 C   0  0
    0.0000   -1.5000    0.0000 C   0  0
    0.0000   -3.0000    0.0000 C   0  0
    1.2990   -3.7500    0.0000 O   0  0
   -1.2990   -3.7500    0.0000 C   0  0
   -1.2990   -5.2500    0.0000 C   0  0
    0.0000   -6.0000    0.0000 O   0  0
   -2.5981   -6.0000    0.0000 C   0  0
   -3.8971   -5.2500    0.0000 C   0  0
   -3.8971   -3.7500    0.0000 C   0  0
   -5.1961   -3.0000    0.0000 O   0  0
   -2.5981   -3.0000    0.0000 C   0  0
   -2.5981   -1.5000    0.0000 C   0  0
   -3.8971   -0.7500    0.0000 O   0  0
   -5.1961   -6.0000    0.0000 C   0  0
   -5.1961   -7.5000    0.0000 C   0  0  1  0  0  0
   -6.4764   -6.7184    0.0000 O   0  0
   -5.1597   -8.9800    0.0000 C   0  0
   -6.4588   -9.7299    0.0000 C   0  0
   -3.8610   -9.7305    0.0000 O   0  0
   -3.8971   -8.2500    0.0000 C   0  0
   -2.5981   -7.5000    0.0000 C   0  0  2  0  0  0
   -1.2998   -8.2531    0.0000 O   0  0
   -1.3020   -9.7539    0.0000 C   0  0  1  0  0  0
   -0.0056  -10.5085    0.0000 C   0  0
   -0.0108  -12.0085    0.0000 C   0  0  2  0  0  0
    1.2857  -12.7630    0.0000 N   0  0
   -1.3124  -12.7540    0.0000 C   0  0  2  0  0  0
   -1.3176  -14.2540    0.0000 O   0  0
   -2.6088  -11.9995    0.0000 C   0  0  2  0  0  0
   -3.9104  -12.7450    0.0000 C   0  0
   -2.6036  -10.4995    0.0000 O   0  0
  1  2  1  0
  2  3  1  0
  3  4  2  0
  4  5  1  0
  5  6  2  0
  6  7  1  0
  7  8  2  0
  8  3  1  0
  8  9  1  0
  9 10  2  0
  9 11  1  0
 11 12  2  0
 12 13  1  0
 12 14  1  0
 14 15  2  0
 15 16  1  0
 16 17  1  0
 16 18  2  0
 18 11  1  0
 18 19  1  0
 19  7  1  0
 19 20  2  0
 15 21  1  0
 21 22  1  0
 22 23  1  1
 22 24  1  0
 24 25  1  0
 24 26  2  0
 22 27  1  0
 27 28  1  0
 28 14  1  0
 28 29  1  1
 30 29  1  1
 30 31  1  0
 31 32  1  0
 32 33  1  6
 32 34  1  0
 34 35  1  6
 34 36  1  0
 36 37  1  6
 36 38  1  0
 38 30  1  0
M  END
> <assay_chembl_id>
CHEMBL2025147

> <assay_description>
Cytostatic activity against human LNCAP cells after 4 days by MTT assay

> <document_journal>
Eur J Med Chem

> <molecule_chembl_id>
CHEMBL178

> <standard_value>
100

> <IC50_uM>
0.1

> <Activity>
Yes

> <Canonical_Smiles>
COc1cccc2c1C(=O)c1c(O)c3c(c(O)c1C2=O)C[C@@](O)(C(C)=O)C[C@@H]3O[C@H]1C[C@H](N)[C@H](O)[C@H](C)O1

$$$$

  SciTegic03142313312D

 33 35  0  0  1  0            999 V2000
    1.2948   -3.7516    0.0000 C   0  0
    2.5951   -3.0039    0.0000 N   0  0
    2.5973   -1.5031    0.0000 C   0  0
    1.2990   -0.7500    0.0000 C   0  0
    1.2990    0.7500    0.0000 C   0  0
    0.0000    1.5000    0.0000 N   0  0
   -1.2990    0.7500    0.0000 C   0  0
   -2.5981    1.5000    0.0000 N   0  0
   -3.8971    0.7500    0.0000 C   0  0
   -5.1962    1.5000    0.0000 N   0  0
   -3.8971   -0.7500    0.0000 N   0  0
   -2.5981   -1.5000    0.0000 C   0  0
   -2.5981   -3.0000    0.0000 N   0  0
   -1.2990   -0.7500    0.0000 C   0  0
    0.0000   -1.5000    0.0000 N   0  0
    3.8933   -3.7570    0.0000 C   0  0
    3.8934   -5.2570    0.0000 C   0  0
    5.1924   -6.0070    0.0000 C   0  0
    6.4915   -5.2571    0.0000 C   0  0
    7.7928   -6.0048    0.0000 C   0  0
    7.7953   -7.5048    0.0000 O   0  0
    9.0914   -5.2526    0.0000 N   0  0
   10.3927   -6.0004    0.0000 C   0  0  1  0  0  0
   11.6914   -5.2481    0.0000 C   0  0
   12.9927   -5.9959    0.0000 C   0  0
   14.2914   -5.2437    0.0000 C   0  0
   15.5920   -5.9910    0.0000 O   0  0
   14.2888   -3.7437    0.0000 O   0  0
   10.3984   -7.5012    0.0000 C   0  0
   11.6998   -8.2471    0.0000 O   0  0
    9.1020   -8.2557    0.0000 O   0  0
    6.4915   -3.7571    0.0000 C   0  0
    5.1925   -3.0070    0.0000 C   0  0
  1  2  1  0
  2  3  1  0
  3  4  1  0
  4  5  2  0
  5  6  1  0
  6  7  2  0
  7  8  1  0
  8  9  2  0
  9 10  1  0
  9 11  1  0
 11 12  2  0
 12 13  1  0
 12 14  1  0
 14  7  1  0
 14 15  2  0
 15  4  1  0
  2 16  1  0
 16 17  2  0
 17 18  1  0
 18 19  2  0
 19 20  1  0
 20 21  2  0
 20 22  1  0
 23 22  1  1
 23 24  1  0
 24 25  1  0
 25 26  1  0
 26 27  2  0
 26 28  1  0
 23 29  1  0
 29 30  2  0
 29 31  1  0
 19 32  1  0
 32 33  2  0
 33 16  1  0
M  END
> <assay_chembl_id>
CHEMBL2025147

> <assay_description>
Cytostatic activity against human LNCAP cells after 4 days by MTT assay

> <document_journal>
Eur J Med Chem

> <molecule_chembl_id>
CHEMBL34259

> <standard_value>
300

> <IC50_uM>
0.3

> <Activity>
Yes

> <Canonical_Smiles>
CN(Cc1cnc2nc(N)nc(N)c2n1)c1ccc(C(=O)N[C@@H](CCC(=O)O)C(=O)O)cc1

$$$$

  SciTegic03142313312D

168183  0  0  1  0            999 V2000
    2.6044   -2.9977    0.0000 C   0  0
    2.6003   -1.4977    0.0000 O   0  0
    1.2990   -0.7500    0.0000 C   0  0
    1.2990    0.7500    0.0000 C   0  0
    0.0000    1.5000    0.0000 C   0  0
   -1.2990    0.7500    0.0000 C   0  0
   -1.2990   -0.7500    0.0000 C   0  0
    0.0000   -1.5000    0.0000 C   0  0
    0.0000   -3.0000    0.0000 C   0  0
    1.2990   -3.7500    0.0000 O   0  0
   -1.2990   -3.7500    0.0000 C   0  0
   -1.2990   -5.2500    0.0000 C   0  0
    0.0000   -6.0000    0.0000 O   0  0
   -2.5981   -6.0000    0.0000 C   0  0
   -3.8971   -5.2500    0.0000 C   0  0
   -3.8971   -3.7500    0.0000 C   0  0
   -5.1961   -3.0000    0.0000 O   0  0
   -2.5981   -3.0000    0.0000 C   0  0
   -2.5981   -1.5000    0.0000 C   0  0
   -3.8971   -0.7500    0.0000 O   0  0
   -5.1961   -6.0000    0.0000 C   0  0
   -5.1961   -7.5000    0.0000 C   0  0  1  0  0  0
   -6.4764   -6.7184    0.0000 O   0  0
   -5.1597   -8.9800    0.0000 C   0  0
   -3.8252   -9.6650    0.0000 C   0  0
   -6.4206   -9.7940    0.0000 N   0  0
   -6.3470  -11.2930    0.0000 O   0  0
   -7.6079  -12.1071    0.0000 C   0  0
   -7.5343  -13.6061    0.0000 C   0  0
   -6.1998  -14.2911    0.0000 O   0  0
   -8.7952  -14.4201    0.0000 N   0  0
   -8.7216  -15.9191    0.0000 C   0  0
   -9.9825  -16.7332    0.0000 C   0  0
   -9.9089  -18.2322    0.0000 C   0  0
  -11.1698  -19.0462    0.0000 C   0  0
  -11.0962  -20.5452    0.0000 C   0  0  2  0  0  0
  -12.3571  -21.3593    0.0000 N   0  0
  -12.2835  -22.8583    0.0000 C   0  0
  -11.3939  -23.3150    0.0000 O   0  0
  -13.5444  -23.6723    0.0000 C   0  0  2  0  0  0
  -14.8810  -22.9897    0.0000 C   0  0
  -16.1410  -23.8051    0.0000 C   0  0
  -16.2007  -25.2912    0.0000 C   0  0
  -17.6495  -25.6799    0.0000 N   0  0
  -18.4662  -24.4227    0.0000 C   0  0
  -19.9478  -24.1885    0.0000 C   0  0
  -20.4858  -22.7883    0.0000 C   0  0
  -19.5422  -21.6223    0.0000 C   0  0
  -18.0606  -21.8564    0.0000 C   0  0
  -17.5226  -23.2566    0.0000 C   0  0
  -13.4708  -25.1713    0.0000 N   0  0
  -14.7317  -25.9854    0.0000 C   0  0
  -15.6214  -25.5287    0.0000 O   0  0
  -14.6581  -27.4844    0.0000 C   0  0  2  0  0  0
  -13.3243  -28.1725    0.0000 C   0  0
  -12.0610  -27.3623    0.0000 C   0  0
  -10.7280  -28.0500    0.0000 O   0  0
  -12.1080  -26.3634    0.0000 O   0  0
  -15.9190  -28.2984    0.0000 N   0  0
  -15.8454  -29.7974    0.0000 C   0  0
  -14.9558  -30.2541    0.0000 O   0  0
  -17.1063  -30.6115    0.0000 C   0  0  2  0  0  0
  -18.4429  -29.9289    0.0000 C   0  0
  -19.7029  -30.7443    0.0000 C   0  0
  -21.0852  -30.1955    0.0000 C   0  0
  -22.0286  -31.3617    0.0000 N   0  0
  -21.2111  -32.6193    0.0000 C   0  0
  -19.7624  -32.2304    0.0000 N   0  0
  -17.0328  -32.1105    0.0000 N   0  0
  -18.2936  -32.9245    0.0000 C   0  0
  -19.1833  -32.4679    0.0000 O   0  0
  -18.2201  -34.4235    0.0000 C   0  0  2  0  0  0
  -19.4809  -35.2376    0.0000 C   0  0
  -19.4074  -36.7366    0.0000 C   0  0
  -20.6682  -37.5506    0.0000 C   0  0
  -20.5947  -39.0496    0.0000 C   0  0
  -21.8556  -39.8637    0.0000 N   0  0
  -21.7820  -41.3627    0.0000 C   0  0
  -20.4475  -42.0477    0.0000 O   0  0
  -23.0429  -42.1767    0.0000 C   0  0  2  0  0  0
  -24.3795  -41.4941    0.0000 C   0  0
  -25.6395  -42.3095    0.0000 C   0  0
  -26.9761  -41.6269    0.0000 C   0  0
  -28.2353  -42.4419    0.0000 O   0  0
  -27.0527  -40.1289    0.0000 O   0  0
  -22.9693  -43.6757    0.0000 N   0  0
  -24.2302  -44.4898    0.0000 C   0  0
  -25.5646  -43.8048    0.0000 O   0  0
  -24.1566  -45.9888    0.0000 C   0  0
  -25.4156  -46.8042    0.0000 C   0  0
  -25.3390  -48.3023    0.0000 C   0  0
  -24.0034  -48.9850    0.0000 C   0  0
  -23.9237  -50.4837    0.0000 N   0  0
  -25.1813  -51.3012    0.0000 C   0  0
  -22.5863  -51.1649    0.0000 C   0  0
  -22.5066  -52.6636    0.0000 C   0  0
  -21.1710  -53.3463    0.0000 C   0  0
  -21.0944  -54.8444    0.0000 N   0  0
  -22.3534  -55.6597    0.0000 C   0  0
  -22.2768  -57.1578    0.0000 N   0  0
  -23.5358  -57.9732    0.0000 C   0  0
  -23.4592  -59.4712    0.0000 N   0  0
  -24.8715  -57.2905    0.0000 N   0  0
  -24.9481  -55.7925    0.0000 C   0  0
  -26.2837  -55.1098    0.0000 N   0  0
  -23.6891  -54.9771    0.0000 C   0  0
  -23.7657  -53.4790    0.0000 N   0  0
  -22.7443  -48.1696    0.0000 C   0  0
  -22.8209  -46.6716    0.0000 C   0  0
  -16.8834  -35.1062    0.0000 N   0  0
  -15.6235  -34.2907    0.0000 C   0  0
  -15.7001  -32.7927    0.0000 O   0  0
  -14.2869  -34.9734    0.0000 C   0  0  2  0  0  0
  -13.0259  -34.1594    0.0000 C   0  0
  -13.0995  -32.6603    0.0000 C   0  0
  -14.3552  -31.8634    0.0000 C   0  0
  -13.9649  -30.4150    0.0000 N   0  0
  -12.4677  -30.3390    0.0000 C   0  0
  -11.5220  -29.1746    0.0000 C   0  0
  -10.0408  -29.4114    0.0000 C   0  0
   -9.5053  -30.8126    0.0000 C   0  0
  -10.4509  -31.9769    0.0000 C   0  0
  -11.9321  -31.7401    0.0000 C   0  0
  -14.2132  -36.4724    0.0000 N   0  0
  -15.4740  -37.2865    0.0000 C   0  0
  -16.8085  -36.6015    0.0000 O   0  0
  -15.4004  -38.7855    0.0000 C   0  0  2  0  0  0
  -14.0666  -39.4736    0.0000 C   0  0
  -13.9947  -40.9727    0.0000 C   0  0
  -12.7430  -41.7759    0.0000 C   0  0
  -13.1405  -43.2223    0.0000 N   0  0
  -14.6389  -43.2911    0.0000 C   0  0
  -15.1675  -41.8873    0.0000 N   0  0
  -16.6613  -39.5996    0.0000 N   0  0
  -16.5877  -41.0986    0.0000 C   0  0
  -15.6980  -41.5552    0.0000 O   0  0
  -17.8485  -41.9127    0.0000 C   0  0  2  0  0  0
  -17.9157  -43.3984    0.0000 C   0  0
  -19.3664  -43.7798    0.0000 C   0  0
  -20.1774  -42.5180    0.0000 C   0  0
  -21.6750  -42.4324    0.0000 O   0  0
  -19.2280  -41.3567    0.0000 N   0  0
   -9.7624  -21.2334    0.0000 C   0  0
   -8.5006  -20.4224    0.0000 O   0  0
   -9.6905  -22.7325    0.0000 N   0  0
  -10.8633  -23.6471    0.0000 C   0  0
  -10.3349  -25.0509    0.0000 C   0  0
   -8.8364  -24.9821    0.0000 C   0  0
   -8.4388  -23.5357    0.0000 C   0  0  1  0  0  0
   -7.0419  -22.9942    0.0000 C   0  0
   -5.8734  -23.9347    0.0000 O   0  0
   -6.8111  -21.5113    0.0000 N   0  0
   -5.4118  -20.9688    0.0000 C   0  0
   -5.1810  -19.4858    0.0000 C   0  0
   -6.3495  -18.5453    0.0000 N   0  0
   -3.7824  -18.9436    0.0000 O   0  0
   -3.8971   -8.2500    0.0000 C   0  0
   -2.5981   -7.5000    0.0000 C   0  0  2  0  0  0
   -1.2998   -8.2531    0.0000 O   0  0
   -1.3020   -9.7539    0.0000 C   0  0  1  0  0  0
   -0.0056  -10.5085    0.0000 C   0  0
   -0.0108  -12.0085    0.0000 C   0  0  2  0  0  0
    1.2857  -12.7630    0.0000 N   0  0
   -1.3124  -12.7540    0.0000 C   0  0  2  0  0  0
   -1.3158  -13.7540    0.0000 O   0  0
   -2.6088  -11.9995    0.0000 C   0  0  2  0  0  0
   -3.9104  -12.7450    0.0000 C   0  0
   -2.6036  -10.4995    0.0000 O   0  0
  1  2  1  0
  2  3  1  0
  3  4  2  0
  4  5  1  0
  5  6  2  0
  6  7  1  0
  7  8  2  0
  8  3  1  0
  8  9  1  0
  9 10  2  0
  9 11  1  0
 11 12  2  0
 12 13  1  0
 12 14  1  0
 14 15  2  0
 15 16  1  0
 16 17  1  0
 16 18  2  0
 18 11  1  0
 18 19  1  0
 19  7  1  0
 19 20  2  0
 15 21  1  0
 21 22  1  0
 22 23  1  1
 22 24  1  0
 24 25  1  0
 24 26  2  0
 26 27  1  0
 27 28  1  0
 28 29  1  0
 29 30  2  0
 29 31  1  0
 31 32  1  0
 32 33  1  0
 33 34  1  0
 34 35  1  0
 36 35  1  1
 36 37  1  0
 37 38  1  0
 38 39  2  0
 38 40  1  0
 40 41  1  1
 41 42  1  0
 42 43  2  0
 43 44  1  0
 44 45  1  0
 45 46  2  0
 46 47  1  0
 47 48  2  0
 48 49  1  0
 49 50  2  0
 50 42  1  0
 50 45  1  0
 40 51  1  0
 51 52  1  0
 52 53  2  0
 52 54  1  0
 54 55  1  6
 55 56  1  0
 56 57  2  0
 56 58  1  0
 54 59  1  0
 59 60  1  0
 60 61  2  0
 60 62  1  0
 62 63  1  1
 63 64  1  0
 64 65  2  0
 65 66  1  0
 66 67  2  0
 67 68  1  0
 68 64  1  0
 62 69  1  0
 69 70  1  0
 70 71  2  0
 70 72  1  0
 72 73  1  1
 73 74  1  0
 74 75  1  0
 75 76  1  0
 76 77  1  0
 77 78  1  0
 78 79  2  0
 78 80  1  0
 80 81  1  1
 81 82  1  0
 82 83  1  0
 83 84  2  0
 83 85  1  0
 80 86  1  0
 86 87  1  0
 87 88  2  0
 87 89  1  0
 89 90  2  0
 90 91  1  0
 91 92  2  0
 92 93  1  0
 93 94  1  0
 93 95  1  0
 95 96  1  0
 96 97  2  0
 97 98  1  0
 98 99  2  0
 99100  1  0
100101  2  0
101102  1  0
101103  1  0
103104  2  0
104105  1  0
104106  1  0
106 99  1  0
106107  2  0
107 96  1  0
 92108  1  0
108109  2  0
109 89  1  0
 72110  1  0
110111  1  0
111112  2  0
111113  1  0
113114  1  6
114115  1  0
115116  2  0
116117  1  0
117118  1  0
118119  2  0
119120  1  0
120121  2  0
121122  1  0
122123  2  0
123115  1  0
123118  1  0
113124  1  0
124125  1  0
125126  2  0
125127  1  0
127128  1  6
128129  1  0
129130  2  0
130131  1  0
131132  2  0
132133  1  0
133129  1  0
127134  1  0
134135  1  0
135136  2  0
137135  1  6
137138  1  0
138139  1  0
139140  1  0
140141  2  0
140142  1  0
142137  1  0
 36143  1  0
143144  2  0
143145  1  0
145146  1  0
146147  1  0
147148  1  0
148149  1  0
149145  1  0
149150  1  6
150151  2  0
150152  1  0
152153  1  0
153154  1  0
154155  1  0
154156  2  0
 22157  1  0
157158  1  0
158 14  1  0
158159  1  1
160159  1  1
160161  1  0
161162  1  0
162163  1  6
162164  1  0
164165  1  6
164166  1  0
166167  1  6
166168  1  0
168160  1  0
M  END
> <assay_chembl_id>
CHEMBL2025147

> <assay_description>
Cytostatic activity against human LNCAP cells after 4 days by MTT assay

> <document_journal>
Eur J Med Chem

> <molecule_chembl_id>
CHEMBL2022064

> <standard_value>
28800

> <IC50_uM>
28.8

> <Activity>
No

> <Canonical_Smiles>
COc1cccc2c1C(=O)c1c(O)c3c(c(O)c1C2=O)C[C@@](O)(/C(C)=N/OCC(=O)NCCCC[C@H](NC(=O)[C@H](Cc1c[nH]c2ccccc12)NC(=O)[C@H](CC(=O)O)NC(=O)[C@H](Cc1cnc[nH]1)NC(=O)[C@H](CCCCNC(=O)[C@H](CCC(=O)O)NC(=O)c1ccc(N(C)
Cc2cnc4nc(N)nc(N)c4n2)cc1)NC(=O)[C@H](Cc1c[nH]c2ccccc12)NC(=O)[C@H](Cc1cnc[nH]1)NC(=O)[C@@H]1CCC(=O)N1)C(=O)N1CCC[C@H]1C(=O)NCC(N)=O)C[C@@H]3O[C@H]1C[C@H](N)[C@H](O)[C@H](C)O1

$$$$

  SciTegic03142313312D

 31 34  0  0  0  0            999 V2000
    2.5981   -1.5000    0.0000 C   0  0
    1.2990   -0.7500    0.0000 C   0  0
    1.2990    0.7500    0.0000 C   0  0
    2.5981    1.5000    0.0000 C   0  0
    0.0000    1.5000    0.0000 C   0  0
   -1.2990    0.7500    0.0000 C   0  0
   -1.2990   -0.7500    0.0000 C   0  0
   -2.5981   -1.5000    0.0000 C   0  0
    0.0000   -1.5000    0.0000 C   0  0
    0.0000   -3.0000    0.0000 O   0  0
   -2.5981    1.5000    0.0000 C   0  0
   -2.5981    3.0000    0.0000 C   0  0
   -1.2991    3.7500    0.0000 C   0  0  3  0  0  0
   -2.6161    4.4679    0.0000 C   0  0
    0.0009    4.4584    0.0000 C   0  0
    1.3009    3.7086    0.0000 O   0  0
    2.6009    4.4587    0.0000 C   0  0
    3.9013    3.7112    0.0000 C   0  0
    5.1990    4.4635    0.0000 C   0  0
    5.1962    5.9635    0.0000 C   0  0
    6.4931    6.7190    0.0000 C   0  0
    6.4882    8.2198    0.0000 C   0  0  3  0  0  0
    5.2701    9.0732    0.0000 S   0  0
    5.7261   10.5022    0.0000 C   0  0
    4.8380   11.7111    0.0000 O   0  0
    7.2260   10.5102    0.0000 N   0  0
    7.6971    9.0861    0.0000 C   0  0
    9.1234    8.6216    0.0000 O   0  0
    3.8958    6.7112    0.0000 C   0  0
    2.5982    5.9588    0.0000 C   0  0
    0.0000    3.0000    0.0000 O   0  0
  1  2  1  0
  2  3  2  0
  3  4  1  0
  3  5  1  0
  5  6  2  0
  6  7  1  0
  7  8  1  0
  7  9  2  0
  9  2  1  0
  9 10  1  0
  6 11  1  0
 11 12  1  0
 12 13  1  0
 13 14  1  4
 13 15  1  0
 15 16  1  0
 16 17  1  0
 17 18  2  0
 18 19  1  0
 19 20  2  0
 20 21  1  0
 22 21  1  4
 22 23  1  0
 23 24  1  0
 24 25  2  0
 24 26  1  0
 26 27  1  0
 27 22  1  0
 27 28  2  0
 20 29  1  0
 29 30  2  0
 30 17  1  0
 13 31  1  0
 31  5  1  0
M  END
> <assay_chembl_id>
CHEMBL2039131

> <assay_description>
Cytotoxicity against human LNCAP cells after 24 hrs by MTT assay

> <document_journal>
Bioorg Med Chem

> <molecule_chembl_id>
CHEMBL408

> <standard_value>
22000

> <IC50_uM>
22

> <Activity>
No

> <Canonical_Smiles>
Cc1c(C)c2c(c(C)c1O)CCC(C)(COc1ccc(CC3SC(=O)NC3=O)cc1)O2

$$$$

  SciTegic03142313312D

 27 30  0  0  0  0            999 V2000
    2.5951   -3.0031    0.0000 C   0  0
    2.5973   -1.5031    0.0000 N   0  0
    3.8976   -0.7553    0.0000 C   0  0
    1.2990   -0.7500    0.0000 C   0  0
    1.2990    0.7500    0.0000 C   0  0
    0.0000    1.5000    0.0000 C   0  0
   -1.2990    0.7500    0.0000 C   0  0
   -1.2990   -0.7500    0.0000 C   0  0
    0.0000   -1.5000    0.0000 C   0  0
   -2.5981   -1.5000    0.0000 O   0  0
   -3.8971   -0.7500    0.0000 C   0  0
   -5.1961   -1.5000    0.0000 N   0  0
   -3.8971    0.7500    0.0000 C   0  0
   -5.1969    1.5004    0.0000 C   0  0
   -6.4959    2.2504    0.0000 N   0  0
   -2.5981    1.5000    0.0000 C   0  0  3  0  0  0
   -2.5981    3.0007    0.0000 C   0  0
   -1.2979    3.7488    0.0000 C   0  0
   -1.2955    5.2488    0.0000 C   0  0
   -2.5933    6.0009    0.0000 C   0  0
   -3.8936    5.2529    0.0000 C   0  0
   -5.1914    6.0050    0.0000 C   0  0
   -5.1891    7.5050    0.0000 F   0  0
   -6.4916    5.2570    0.0000 C   0  0
   -6.4940    3.7570    0.0000 C   0  0
   -5.1962    3.0050    0.0000 C   0  0
   -3.8959    3.7529    0.0000 C   0  0
  1  2  1  0
  2  3  1  0
  2  4  1  0
  4  5  2  0
  5  6  1  0
  6  7  2  0
  7  8  1  0
  8  9  2  0
  9  4  1  0
  8 10  1  0
 10 11  1  0
 11 12  1  0
 11 13  2  0
 13 14  1  0
 14 15  3  0
 13 16  1  0
 16  7  1  0
 16 17  1  4
 17 18  2  0
 18 19  1  0
 19 20  2  0
 20 21  1  0
 21 22  2  0
 22 23  1  0
 22 24  1  0
 24 25  2  0
 25 26  1  0
 26 27  2  0
 27 17  1  0
 27 21  1  0
M  END
> <assay_chembl_id>
CHEMBL2043898

> <assay_description>
Antiproliferative activity against human LNCAP cells after 96 hrs by SRB assay

> <document_journal>
Bioorg Med Chem Lett

> <molecule_chembl_id>
CHEMBL2042472

> <standard_value>
250

> <IC50_uM>
0.25

> <Activity>
Yes

> <Canonical_Smiles>
CN(C)c1ccc2c(c1)OC(N)=C(C#N)C2c1cccc2c(F)cccc12

$$$$

  SciTegic03142313312D

 27 30  0  0  0  0            999 V2000
    2.5951   -3.0031    0.0000 C   0  0
    2.5973   -1.5031    0.0000 N   0  0
    3.8976   -0.7553    0.0000 C   0  0
    1.2990   -0.7500    0.0000 C   0  0
    1.2990    0.7500    0.0000 C   0  0
    0.0000    1.5000    0.0000 C   0  0
   -1.2990    0.7500    0.0000 C   0  0
   -1.2990   -0.7500    0.0000 C   0  0
    0.0000   -1.5000    0.0000 C   0  0
   -2.5981   -1.5000    0.0000 O   0  0
   -3.8971   -0.7500    0.0000 C   0  0
   -5.1961   -1.5000    0.0000 N   0  0
   -3.8971    0.7500    0.0000 C   0  0
   -5.1969    1.5004    0.0000 C   0  0
   -6.4959    2.2504    0.0000 N   0  0
   -2.5981    1.5000    0.0000 C   0  0  3  0  0  0
   -2.5981    3.0007    0.0000 C   0  0
   -1.2979    3.7488    0.0000 C   0  0
   -1.2955    5.2488    0.0000 C   0  0
   -2.5933    6.0009    0.0000 C   0  0
   -3.8936    5.2529    0.0000 C   0  0
   -5.1914    6.0050    0.0000 C   0  0
   -5.1891    7.5050    0.0000 Br  0  0
   -6.4916    5.2570    0.0000 C   0  0
   -6.4940    3.7570    0.0000 C   0  0
   -5.1962    3.0050    0.0000 C   0  0
   -3.8959    3.7529    0.0000 C   0  0
  1  2  1  0
  2  3  1  0
  2  4  1  0
  4  5  2  0
  5  6  1  0
  6  7  2  0
  7  8  1  0
  8  9  2  0
  9  4  1  0
  8 10  1  0
 10 11  1  0
 11 12  1  0
 11 13  2  0
 13 14  1  0
 14 15  3  0
 13 16  1  0
 16  7  1  0
 16 17  1  4
 17 18  2  0
 18 19  1  0
 19 20  2  0
 20 21  1  0
 21 22  2  0
 22 23  1  0
 22 24  1  0
 24 25  2  0
 25 26  1  0
 26 27  2  0
 27 17  1  0
 27 21  1  0
M  END
> <assay_chembl_id>
CHEMBL2043898

> <assay_description>
Antiproliferative activity against human LNCAP cells after 96 hrs by SRB assay

> <document_journal>
Bioorg Med Chem Lett

> <molecule_chembl_id>
CHEMBL2042473

> <standard_value>
280

> <IC50_uM>
0.28

> <Activity>
Yes

> <Canonical_Smiles>
CN(C)c1ccc2c(c1)OC(N)=C(C#N)C2c1cccc2c(Br)cccc12

$$$$

  SciTegic03142313312D

 28 31  0  0  0  0            999 V2000
    3.8983   -0.7459    0.0000 C   0  0
    2.6003   -1.4977    0.0000 O   0  0
    1.2990   -0.7500    0.0000 C   0  0
    1.2990    0.7500    0.0000 C   0  0
    0.0000    1.5000    0.0000 C   0  0
   -1.2990    0.7500    0.0000 C   0  0
   -2.5987    1.5004    0.0000 C   0  0  3  0  0  0
   -3.8967    0.7484    0.0000 C   0  0
   -3.8944   -0.7525    0.0000 C   0  0
   -3.8921   -2.2525    0.0000 N   0  0
   -5.1969    1.4963    0.0000 C   0  0
   -6.4948    0.7442    0.0000 N   0  0
   -5.1993    2.9963    0.0000 O   0  0
   -3.9014    3.7484    0.0000 C   0  0
   -3.9038    5.2484    0.0000 C   0  0
   -2.6060    6.0004    0.0000 C   0  0
   -2.6053    7.5013    0.0000 N   0  0
   -1.3064    8.2515    0.0000 C   0  0
   -3.9042    8.2515    0.0000 C   0  0
   -1.3058    5.2525    0.0000 C   0  0
   -1.3034    3.7525    0.0000 C   0  0
   -2.6012    3.0004    0.0000 C   0  0
   -1.2990   -0.7500    0.0000 C   0  0
   -2.5981   -1.5000    0.0000 C   0  0
   -2.5981   -3.0000    0.0000 C   0  0
   -1.2990   -3.7500    0.0000 C   0  0
    0.0000   -3.0000    0.0000 C   0  0
    0.0000   -1.5000    0.0000 C   0  0
  1  2  1  0
  2  3  1  0
  3  4  2  0
  4  5  1  0
  5  6  2  0
  7  6  1  4
  7  8  1  0
  8  9  1  0
  9 10  3  0
  8 11  2  0
 11 12  1  0
 11 13  1  0
 13 14  1  0
 14 15  2  0
 15 16  1  0
 16 17  1  0
 17 18  1  0
 17 19  1  0
 16 20  2  0
 20 21  1  0
 21 22  2  0
 22 14  1  0
 22  7  1  0
  6 23  1  0
 23 24  2  0
 24 25  1  0
 25 26  2  0
 26 27  1  0
 27 28  2  0
 28  3  1  0
 28 23  1  0
M  END
> <assay_chembl_id>
CHEMBL2043898

> <assay_description>
Antiproliferative activity against human LNCAP cells after 96 hrs by SRB assay

> <document_journal>
Bioorg Med Chem Lett

> <molecule_chembl_id>
CHEMBL2042474

> <standard_value>
760

> <IC50_uM>
0.76

> <Activity>
Yes

> <Canonical_Smiles>
COc1ccc(C2C(C#N)=C(N)Oc3cc(N(C)C)ccc32)c2ccccc12

$$$$

  SciTegic03142313312D

 27 30  0  0  0  0            999 V2000
    2.5951   -3.0031    0.0000 C   0  0
    2.5973   -1.5031    0.0000 N   0  0
    3.8976   -0.7553    0.0000 C   0  0
    1.2990   -0.7500    0.0000 C   0  0
    1.2990    0.7500    0.0000 C   0  0
    0.0000    1.5000    0.0000 C   0  0
   -1.2990    0.7500    0.0000 C   0  0
   -1.2990   -0.7500    0.0000 C   0  0
    0.0000   -1.5000    0.0000 C   0  0
   -2.5981   -1.5000    0.0000 O   0  0
   -3.8971   -0.7500    0.0000 C   0  0
   -5.1961   -1.5000    0.0000 N   0  0
   -3.8971    0.7500    0.0000 C   0  0
   -5.1969    1.5004    0.0000 C   0  0
   -6.4959    2.2504    0.0000 N   0  0
   -2.5981    1.5000    0.0000 C   0  0  3  0  0  0
   -2.5981    3.0007    0.0000 C   0  0
   -1.2979    3.7488    0.0000 C   0  0
   -1.2955    5.2488    0.0000 C   0  0
   -2.5933    6.0009    0.0000 C   0  0
   -2.5910    7.5009    0.0000 F   0  0
   -3.8936    5.2529    0.0000 C   0  0
   -5.1914    6.0050    0.0000 C   0  0
   -6.4916    5.2570    0.0000 C   0  0
   -6.4940    3.7570    0.0000 C   0  0
   -5.1962    3.0050    0.0000 C   0  0
   -3.8959    3.7529    0.0000 C   0  0
  1  2  1  0
  2  3  1  0
  2  4  1  0
  4  5  2  0
  5  6  1  0
  6  7  2  0
  7  8  1  0
  8  9  2  0
  9  4  1  0
  8 10  1  0
 10 11  1  0
 11 12  1  0
 11 13  2  0
 13 14  1  0
 14 15  3  0
 13 16  1  0
 16  7  1  0
 16 17  1  4
 17 18  2  0
 18 19  1  0
 19 20  2  0
 20 21  1  0
 20 22  1  0
 22 23  2  0
 23 24  1  0
 24 25  2  0
 25 26  1  0
 26 27  2  0
 27 17  1  0
 27 22  1  0
M  END
> <assay_chembl_id>
CHEMBL2043898

> <assay_description>
Antiproliferative activity against human LNCAP cells after 96 hrs by SRB assay

> <document_journal>
Bioorg Med Chem Lett

> <molecule_chembl_id>
CHEMBL2042555

> <standard_value>
410

> <IC50_uM>
0.41

> <Activity>
Yes

> <Canonical_Smiles>
CN(C)c1ccc2c(c1)OC(N)=C(C#N)C2c1ccc(F)c2ccccc12

$$$$

  SciTegic03142313312D

 29 32  0  0  0  0            999 V2000
    2.5951   -3.0031    0.0000 C   0  0
    2.5973   -1.5031    0.0000 N   0  0
    3.8976   -0.7553    0.0000 C   0  0
    1.2990   -0.7500    0.0000 C   0  0
    1.2990    0.7500    0.0000 C   0  0
    0.0000    1.5000    0.0000 C   0  0
   -1.2990    0.7500    0.0000 C   0  0
   -1.2990   -0.7500    0.0000 C   0  0
    0.0000   -1.5000    0.0000 C   0  0
   -2.5981   -1.5000    0.0000 O   0  0
   -3.8971   -0.7500    0.0000 C   0  0
   -5.1961   -1.5000    0.0000 N   0  0
   -3.8971    0.7500    0.0000 C   0  0
   -5.1969    1.5004    0.0000 C   0  0
   -6.4959    2.2504    0.0000 N   0  0
   -2.5981    1.5000    0.0000 C   0  0  3  0  0  0
   -2.5981    3.0007    0.0000 C   0  0
   -1.2979    3.7488    0.0000 C   0  0
   -1.2955    5.2488    0.0000 C   0  0
   -2.5933    6.0009    0.0000 C   0  0
   -2.5879    7.5017    0.0000 N   0  0
   -1.2866    8.2478    0.0000 C   0  0
   -3.8844    8.2560    0.0000 C   0  0
   -3.8936    5.2529    0.0000 C   0  0
   -5.1914    6.0050    0.0000 C   0  0
   -6.4916    5.2570    0.0000 C   0  0
   -6.4940    3.7570    0.0000 C   0  0
   -5.1962    3.0050    0.0000 C   0  0
   -3.8959    3.7529    0.0000 C   0  0
  1  2  1  0
  2  3  1  0
  2  4  1  0
  4  5  2  0
  5  6  1  0
  6  7  2  0
  7  8  1  0
  8  9  2  0
  9  4  1  0
  8 10  1  0
 10 11  1  0
 11 12  1  0
 11 13  2  0
 13 14  1  0
 14 15  3  0
 13 16  1  0
 16  7  1  0
 16 17  1  4
 17 18  2  0
 18 19  1  0
 19 20  2  0
 20 21  1  0
 21 22  1  0
 21 23  1  0
 20 24  1  0
 24 25  2  0
 25 26  1  0
 26 27  2  0
 27 28  1  0
 28 29  2  0
 29 17  1  0
 29 24  1  0
M  END
> <assay_chembl_id>
CHEMBL2043898

> <assay_description>
Antiproliferative activity against human LNCAP cells after 96 hrs by SRB assay

> <document_journal>
Bioorg Med Chem Lett

> <molecule_chembl_id>
CHEMBL2042556

> <standard_value>
140

> <IC50_uM>
0.14

> <Activity>
Yes

> <Canonical_Smiles>
CN(C)c1ccc2c(c1)OC(N)=C(C#N)C2c1ccc(N(C)C)c2ccccc12

$$$$

  SciTegic03142313312D

 27 28  0  0  0  0            999 V2000
    3.8983   -0.7459    0.0000 C   0  0
    2.6003   -1.4977    0.0000 O   0  0
    1.2990   -0.7500    0.0000 C   0  0
    1.2990    0.7500    0.0000 C   0  0
    0.0000    1.5000    0.0000 C   0  0
   -0.0031    3.0008    0.0000 C   0  0
   -1.3039    3.7494    0.0000 C   0  0
   -1.3070    5.2502    0.0000 C   0  0
   -0.0093    6.0025    0.0000 O   0  0
   -2.6078    5.9988    0.0000 C   0  0
   -2.6109    7.4996    0.0000 C   0  0
   -1.3132    8.2519    0.0000 O   0  0
   -3.9118    8.2481    0.0000 C   0  0
   -3.9149    9.7490    0.0000 C   0  0
   -5.2157   10.4975    0.0000 C   0  0
   -5.2210   11.9975    0.0000 C   0  0
   -6.5226   12.7430    0.0000 C   0  0
   -7.8190   11.9885    0.0000 C   0  0
   -9.1207   12.7340    0.0000 O   0  0
   -7.8138   10.4885    0.0000 C   0  0
   -9.1094    9.7310    0.0000 O   0  0
   -9.1021    8.2310    0.0000 C   0  0
   -6.5122    9.7430    0.0000 C   0  0
   -1.2990    0.7500    0.0000 C   0  0
   -1.2990   -0.7500    0.0000 C   0  0
    0.0000   -1.5000    0.0000 C   0  0
    0.0000   -3.0000    0.0000 O   0  0
  1  2  1  0
  2  3  1  0
  3  4  2  0
  4  5  1  0
  5  6  1  0
  6  7  2  0
  7  8  1  0
  8  9  2  0
  8 10  1  0
 10 11  2  0
 11 12  1  0
 11 13  1  0
 13 14  2  0
 14 15  1  0
 15 16  2  0
 16 17  1  0
 17 18  2  0
 18 19  1  0
 18 20  1  0
 20 21  1  0
 21 22  1  0
 20 23  2  0
 23 15  1  0
  5 24  2  0
 24 25  1  0
 25 26  2  0
 26  3  1  0
 26 27  1  0
M  END
> <assay_chembl_id>
CHEMBL2051321

> <assay_description>
Cytotoxicity against androgen-dependent human LNCAP cells after 72 hrs by SRB assay

> <document_journal>
Bioorg Med Chem

> <molecule_chembl_id>
CHEMBL116438

> <standard_value>
36400

> <IC50_uM>
36.4

> <Activity>
No

> <Canonical_Smiles>
COc1cc(/C=C/C(=O)/C=C(O)/C=C/c2ccc(O)c(OC)c2)ccc1O

$$$$

  SciTegic03142313312D

 29 30  0  0  0  0            999 V2000
    5.1983   -3.0012    0.0000 C   0  0
    5.1988   -1.5012    0.0000 C   0  0  3  0  0  0
    4.3327   -2.0011    0.0000 O   0  0
    3.8990   -0.7508    0.0000 C   0  0
    2.5988   -1.5004    0.0000 S   0  0
    2.5983   -3.0004    0.0000 O   0  0
    3.4646   -2.0008    0.0000 O   0  0
    1.2990   -0.7500    0.0000 C   0  0
    1.2990    0.7500    0.0000 C   0  0
    0.0000    1.5000    0.0000 C   0  0
   -1.2990    0.7500    0.0000 C   0  0
   -2.5981    1.5000    0.0000 F   0  0
   -1.2990   -0.7500    0.0000 C   0  0
    0.0000   -1.5000    0.0000 C   0  0
    6.4990   -0.7516    0.0000 C   0  0
    6.4995    0.7484    0.0000 O   0  0
    7.7988   -1.5020    0.0000 N   0  0
    9.0990   -0.7525    0.0000 C   0  0
   10.3991   -1.5006    0.0000 C   0  0
   11.6971   -0.7487    0.0000 C   0  0
   11.6950    0.7512    0.0000 C   0  0
   12.9937    1.5035    0.0000 C   0  0
   14.2917    2.2553    0.0000 N   0  0
   10.3949    1.4994    0.0000 C   0  0
   10.3928    3.0003    0.0000 C   0  0
   11.6903    3.7529    0.0000 F   0  0
    9.0925    3.7480    0.0000 F   0  0
   10.3900    4.5002    0.0000 F   0  0
    9.0969    0.7476    0.0000 C   0  0
  2  1  1  4
  2  3  1  0
  2  4  1  0
  4  5  1  0
  5  6  2  0
  5  7  2  0
  5  8  1  0
  8  9  2  0
  9 10  1  0
 10 11  2  0
 11 12  1  0
 11 13  1  0
 13 14  2  0
 14  8  1  0
  2 15  1  0
 15 16  2  0
 15 17  1  0
 17 18  1  0
 18 19  2  0
 19 20  1  0
 20 21  2  0
 21 22  1  0
 22 23  3  0
 21 24  1  0
 24 25  1  0
 25 26  1  0
 25 27  1  0
 25 28  1  0
 24 29  2  0
 29 18  1  0
M  END
> <assay_chembl_id>
CHEMBL2051321

> <assay_description>
Cytotoxicity against androgen-dependent human LNCAP cells after 72 hrs by SRB assay

> <document_journal>
Bioorg Med Chem

> <molecule_chembl_id>
CHEMBL409

> <standard_value>
74000

> <IC50_uM>
74

> <Activity>
No

> <Canonical_Smiles>
CC(O)(CS(=O)(=O)c1ccc(F)cc1)C(=O)Nc1ccc(C#N)c(C(F)(F)F)c1

$$$$

  SciTegic03142313312D

 28 29  0  0  0  0            999 V2000
    3.8983   -0.7459    0.0000 C   0  0
    2.6003   -1.4977    0.0000 O   0  0
    1.2990   -0.7500    0.0000 C   0  0
    1.2990    0.7500    0.0000 C   0  0
    0.0000    1.5000    0.0000 C   0  0
   -0.0031    3.0008    0.0000 C   0  0
   -1.3039    3.7494    0.0000 C   0  0
   -1.3070    5.2502    0.0000 C   0  0
   -0.0093    6.0025    0.0000 O   0  0
   -2.6078    5.9988    0.0000 C   0  0
   -2.6109    7.4996    0.0000 C   0  0
   -1.3132    8.2519    0.0000 O   0  0
   -3.9118    8.2481    0.0000 C   0  0
   -3.9149    9.7490    0.0000 C   0  0
   -5.2157   10.4975    0.0000 C   0  0
   -5.2210   11.9975    0.0000 C   0  0
   -6.5226   12.7430    0.0000 C   0  0
   -7.8190   11.9885    0.0000 C   0  0
   -9.1199   12.7371    0.0000 O   0  0
   -9.1229   14.2371    0.0000 C   0  0
   -7.8138   10.4885    0.0000 C   0  0
   -9.1094    9.7310    0.0000 O   0  0
   -9.1021    8.2310    0.0000 C   0  0
   -6.5122    9.7430    0.0000 C   0  0
   -1.2990    0.7500    0.0000 C   0  0
   -1.2990   -0.7500    0.0000 C   0  0
    0.0000   -1.5000    0.0000 C   0  0
    0.0000   -3.0000    0.0000 O   0  0
  1  2  1  0
  2  3  1  0
  3  4  2  0
  4  5  1  0
  5  6  1  0
  6  7  2  0
  7  8  1  0
  8  9  1  0
  8 10  2  0
 10 11  1  0
 11 12  2  0
 11 13  1  0
 13 14  2  0
 14 15  1  0
 15 16  2  0
 16 17  1  0
 17 18  2  0
 18 19  1  0
 19 20  1  0
 18 21  1  0
 21 22  1  0
 22 23  1  0
 21 24  2  0
 24 15  1  0
  5 25  2  0
 25 26  1  0
 26 27  2  0
 27  3  1  0
 27 28  1  0
M  END
> <assay_chembl_id>
CHEMBL2051321

> <assay_description>
Cytotoxicity against androgen-dependent human LNCAP cells after 72 hrs by SRB assay

> <document_journal>
Bioorg Med Chem

> <molecule_chembl_id>
CHEMBL494826

> <standard_value>
47000

> <IC50_uM>
47

> <Activity>
No

> <Canonical_Smiles>
COc1cc(/C=C/C(O)=C/C(=O)/C=C/c2ccc(OC)c(OC)c2)ccc1O

$$$$

  SciTegic03142313312D

 45 47  0  0  0  0            999 V2000
    3.8983   -0.7459    0.0000 C   0  0
    2.6003   -1.4977    0.0000 O   0  0
    1.2990   -0.7500    0.0000 C   0  0
    1.2990    0.7500    0.0000 C   0  0
    0.0000    1.5000    0.0000 C   0  0
   -0.0031    3.0008    0.0000 C   0  0
   -1.3039    3.7494    0.0000 C   0  0
   -1.3070    5.2502    0.0000 C   0  0
   -0.0093    6.0025    0.0000 O   0  0
   -2.6078    5.9988    0.0000 C   0  0
   -2.6109    7.4996    0.0000 C   0  0
   -1.3132    8.2519    0.0000 O   0  0
   -3.9118    8.2481    0.0000 C   0  0
   -3.9149    9.7490    0.0000 C   0  0
   -5.2157   10.4975    0.0000 C   0  0
   -5.2210   11.9975    0.0000 C   0  0
   -6.5226   12.7430    0.0000 C   0  0
   -7.8190   11.9885    0.0000 C   0  0
   -9.1199   12.7371    0.0000 O   0  0
   -9.1229   14.2379    0.0000 C   0  0
   -7.8252   14.9902    0.0000 C   0  0
   -7.8225   13.4904    0.0000 C   0  0
  -10.4237   14.9865    0.0000 C   0  0
  -11.7215   14.2343    0.0000 O   0  0
  -10.4268   16.4873    0.0000 N   0  0
  -11.7276   17.2359    0.0000 C   0  0
  -11.7328   18.7359    0.0000 C   0  0
  -13.0345   19.4815    0.0000 C   0  0
  -14.3309   18.7270    0.0000 C   0  0
  -15.6332   19.4729    0.0000 C   0  0
  -16.9348   20.2185    0.0000 N   0  0
  -14.3257   17.2270    0.0000 C   0  0
  -15.6229   16.4721    0.0000 C   0  0
  -16.9250   17.2168    0.0000 F   0  0
  -15.6173   14.9721    0.0000 F   0  0
  -16.9190   15.7171    0.0000 F   0  0
  -13.0241   16.4815    0.0000 C   0  0
   -7.8138   10.4885    0.0000 C   0  0
   -9.1094    9.7310    0.0000 O   0  0
   -9.1021    8.2310    0.0000 C   0  0
   -6.5122    9.7430    0.0000 C   0  0
   -1.2990    0.7500    0.0000 C   0  0
   -1.2990   -0.7500    0.0000 C   0  0
    0.0000   -1.5000    0.0000 C   0  0
    0.0000   -3.0000    0.0000 O   0  0
  1  2  1  0
  2  3  1  0
  3  4  2  0
  4  5  1  0
  5  6  1  0
  6  7  2  0
  7  8  1  0
  8  9  2  0
  8 10  1  0
 10 11  2  0
 11 12  1  0
 11 13  1  0
 13 14  2  0
 14 15  1  0
 15 16  2  0
 16 17  1  0
 17 18  2  0
 18 19  1  0
 19 20  1  0
 20 21  1  0
 20 22  1  0
 20 23  1  0
 23 24  2  0
 23 25  1  0
 25 26  1  0
 26 27  2  0
 27 28  1  0
 28 29  2  0
 29 30  1  0
 30 31  3  0
 29 32  1  0
 32 33  1  0
 33 34  1  0
 33 35  1  0
 33 36  1  0
 32 37  2  0
 37 26  1  0
 18 38  1  0
 38 39  1  0
 39 40  1  0
 38 41  2  0
 41 15  1  0
  5 42  2  0
 42 43  1  0
 43 44  2  0
 44  3  1  0
 44 45  1  0
M  END
> <assay_chembl_id>
CHEMBL2051321

> <assay_description>
Cytotoxicity against androgen-dependent human LNCAP cells after 72 hrs by SRB assay

> <document_journal>
Bioorg Med Chem

> <molecule_chembl_id>
CHEMBL2048691

> <standard_value>
55000

> <IC50_uM>
55

> <Activity>
No

> <Canonical_Smiles>
COc1cc(/C=C/C(=O)/C=C(O)/C=C/c2ccc(OC(C)(C)C(=O)Nc3ccc(C#N)c(C(F)(F)F)c3)c(OC)c2)ccc1O

$$$$

  SciTegic03142313312D

 44 46  0  0  0  0            999 V2000
    3.8983   -0.7459    0.0000 C   0  0
    2.6003   -1.4977    0.0000 O   0  0
    1.2990   -0.7500    0.0000 C   0  0
    1.2990    0.7500    0.0000 C   0  0
    0.0000    1.5000    0.0000 C   0  0
   -0.0031    3.0008    0.0000 C   0  0
   -1.3039    3.7494    0.0000 C   0  0
   -1.3070    5.2502    0.0000 C   0  0
   -0.0093    6.0025    0.0000 O   0  0
   -2.6078    5.9988    0.0000 C   0  0
   -2.6109    7.4996    0.0000 C   0  0
   -1.3132    8.2519    0.0000 O   0  0
   -3.9118    8.2481    0.0000 C   0  0
   -3.9149    9.7490    0.0000 C   0  0
   -5.2157   10.4975    0.0000 C   0  0
   -5.2210   11.9975    0.0000 C   0  0
   -6.5226   12.7430    0.0000 C   0  0
   -7.8190   11.9885    0.0000 C   0  0
   -9.1199   12.7371    0.0000 O   0  0
   -9.1229   14.2379    0.0000 C   0  0
   -7.8252   14.9902    0.0000 C   0  0
   -7.8225   13.4904    0.0000 C   0  0
  -10.4237   14.9865    0.0000 C   0  0
  -11.7215   14.2343    0.0000 O   0  0
  -10.4268   16.4873    0.0000 N   0  0
  -11.7276   17.2359    0.0000 C   0  0
  -11.7328   18.7359    0.0000 C   0  0
  -13.0345   19.4815    0.0000 C   0  0
  -14.3309   18.7270    0.0000 C   0  0
  -15.6325   19.4725    0.0000 F   0  0
  -14.3257   17.2270    0.0000 C   0  0
  -15.6229   16.4721    0.0000 C   0  0
  -16.9250   17.2168    0.0000 F   0  0
  -15.6173   14.9721    0.0000 F   0  0
  -16.9190   15.7171    0.0000 F   0  0
  -13.0241   16.4815    0.0000 C   0  0
   -7.8138   10.4885    0.0000 C   0  0
   -9.1094    9.7310    0.0000 O   0  0
   -9.1021    8.2310    0.0000 C   0  0
   -6.5122    9.7430    0.0000 C   0  0
   -1.2990    0.7500    0.0000 C   0  0
   -1.2990   -0.7500    0.0000 C   0  0
    0.0000   -1.5000    0.0000 C   0  0
    0.0000   -3.0000    0.0000 O   0  0
  1  2  1  0
  2  3  1  0
  3  4  2  0
  4  5  1  0
  5  6  1  0
  6  7  2  0
  7  8  1  0
  8  9  2  0
  8 10  1  0
 10 11  2  0
 11 12  1  0
 11 13  1  0
 13 14  2  0
 14 15  1  0
 15 16  2  0
 16 17  1  0
 17 18  2  0
 18 19  1  0
 19 20  1  0
 20 21  1  0
 20 22  1  0
 20 23  1  0
 23 24  2  0
 23 25  1  0
 25 26  1  0
 26 27  2  0
 27 28  1  0
 28 29  2  0
 29 30  1  0
 29 31  1  0
 31 32  1  0
 32 33  1  0
 32 34  1  0
 32 35  1  0
 31 36  2  0
 36 26  1  0
 18 37  1  0
 37 38  1  0
 38 39  1  0
 37 40  2  0
 40 15  1  0
  5 41  2  0
 41 42  1  0
 42 43  2  0
 43  3  1  0
 43 44  1  0
M  END
> <assay_chembl_id>
CHEMBL2051321

> <assay_description>
Cytotoxicity against androgen-dependent human LNCAP cells after 72 hrs by SRB assay

> <document_journal>
Bioorg Med Chem

> <molecule_chembl_id>
CHEMBL2048692

> <standard_value>
54800

> <IC50_uM>
54.8

> <Activity>
No

> <Canonical_Smiles>
COc1cc(/C=C/C(=O)/C=C(O)/C=C/c2ccc(OC(C)(C)C(=O)Nc3ccc(F)c(C(F)(F)F)c3)c(OC)c2)ccc1O

$$$$

  SciTegic03142313312D

 48 50  0  0  0  0            999 V2000
    3.8983   -0.7459    0.0000 C   0  0
    2.6003   -1.4977    0.0000 O   0  0
    1.2990   -0.7500    0.0000 C   0  0
    1.2990    0.7500    0.0000 C   0  0
    0.0000    1.5000    0.0000 C   0  0
   -1.2990    0.7500    0.0000 C   0  0
   -2.6003    1.4977    0.0000 C   0  0
   -3.8990    0.7455    0.0000 C   0  0
   -5.2003    1.4932    0.0000 C   0  0
   -5.2029    2.9932    0.0000 O   0  0
   -6.4990    0.7409    0.0000 C   0  0
   -7.8003    1.4887    0.0000 C   0  0
   -7.8029    2.9887    0.0000 O   0  0
   -9.0990    0.7364    0.0000 C   0  0
  -10.4003    1.4841    0.0000 C   0  0
  -11.6990    0.7318    0.0000 C   0  0
  -13.0007    1.4773    0.0000 C   0  0
  -14.2971    0.7228    0.0000 C   0  0
  -14.2919   -0.7772    0.0000 C   0  0
  -15.5906   -1.5295    0.0000 O   0  0
  -16.8919   -0.7817    0.0000 C   0  0
  -18.1906   -1.5339    0.0000 C   0  0  3  0  0  0
  -18.1880   -3.0339    0.0000 C   0  0
  -16.8904   -2.2819    0.0000 O   0  0
  -19.4919   -0.7862    0.0000 C   0  0
  -19.4944    0.7138    0.0000 O   0  0
  -20.7905   -1.5384    0.0000 N   0  0
  -22.0918   -0.7907    0.0000 C   0  0
  -23.3909   -1.5406    0.0000 C   0  0
  -24.6900   -0.7906    0.0000 C   0  0
  -24.6900    0.7094    0.0000 C   0  0
  -25.9913    1.4571    0.0000 N   0  3
  -27.2893    0.7053    0.0000 O   0  0
  -25.9939    2.9571    0.0000 O   0  5
  -23.3909    1.4594    0.0000 C   0  0
  -23.3910    2.9602    0.0000 C   0  0
  -24.6895    3.7110    0.0000 F   0  0
  -22.0917    3.7098    0.0000 F   0  0
  -23.3902    4.4602    0.0000 F   0  0
  -22.0919    0.7094    0.0000 C   0  0
  -12.9903   -1.5227    0.0000 C   0  0
  -12.9820   -3.0235    0.0000 O   0  0
  -11.6793   -3.7672    0.0000 C   0  0
  -11.6938   -0.7682    0.0000 C   0  0
   -1.2990   -0.7500    0.0000 C   0  0
    0.0000   -1.5000    0.0000 C   0  0
   -0.0031   -3.0008    0.0000 O   0  0
   -1.3032   -3.7490    0.0000 C   0  0
  1  2  1  0
  2  3  1  0
  3  4  2  0
  4  5  1  0
  5  6  2  0
  6  7  1  0
  7  8  2  0
  8  9  1  0
  9 10  2  0
  9 11  1  0
 11 12  2  0
 12 13  1  0
 12 14  1  0
 14 15  2  0
 15 16  1  0
 16 17  2  0
 17 18  1  0
 18 19  2  0
 19 20  1  0
 20 21  1  0
 21 22  1  0
 22 23  1  4
 22 24  1  0
 22 25  1  0
 25 26  2  0
 25 27  1  0
 27 28  1  0
 28 29  2  0
 29 30  1  0
 30 31  2  0
 31 32  1  0
 32 33  2  0
 32 34  1  0
 31 35  1  0
 35 36  1  0
 36 37  1  0
 36 38  1  0
 36 39  1  0
 35 40  2  0
 40 28  1  0
 19 41  1  0
 41 42  1  0
 42 43  1  0
 41 44  2  0
 44 16  1  0
  6 45  1  0
 45 46  2  0
 46  3  1  0
 46 47  1  0
 47 48  1  0
M  CHG  2  32   1  34  -1
M  END
> <assay_chembl_id>
CHEMBL2051321

> <assay_description>
Cytotoxicity against androgen-dependent human LNCAP cells after 72 hrs by SRB assay

> <document_journal>
Bioorg Med Chem

> <molecule_chembl_id>
CHEMBL2048698

> <standard_value>
41800

> <IC50_uM>
41.8

> <Activity>
No

> <Canonical_Smiles>
COc1ccc(/C=C/C(=O)/C=C(O)/C=C/c2ccc(OCC(C)(O)C(=O)Nc3ccc([N+](=O)[O-])c(C(F)(F)F)c3)c(OC)c2)cc1OC

$$$$

  SciTegic03142313312D

 47 49  0  0  0  0            999 V2000
    3.8983   -0.7459    0.0000 C   0  0
    2.6003   -1.4977    0.0000 O   0  0
    1.2990   -0.7500    0.0000 C   0  0
    1.2990    0.7500    0.0000 C   0  0
    0.0000    1.5000    0.0000 C   0  0
   -1.2990    0.7500    0.0000 C   0  0
   -2.6003    1.4977    0.0000 C   0  0
   -3.8990    0.7455    0.0000 C   0  0
   -5.2003    1.4932    0.0000 C   0  0
   -5.2029    2.9932    0.0000 O   0  0
   -6.4990    0.7409    0.0000 C   0  0
   -7.8003    1.4887    0.0000 C   0  0
   -7.8029    2.9887    0.0000 O   0  0
   -9.0990    0.7364    0.0000 C   0  0
  -10.4003    1.4841    0.0000 C   0  0
  -11.6990    0.7318    0.0000 C   0  0
  -13.0007    1.4773    0.0000 C   0  0
  -14.2971    0.7228    0.0000 C   0  0
  -14.2919   -0.7772    0.0000 C   0  0
  -15.5906   -1.5295    0.0000 O   0  0
  -16.8919   -0.7817    0.0000 C   0  0
  -18.1906   -1.5339    0.0000 C   0  0  3  0  0  0
  -18.1880   -3.0339    0.0000 C   0  0
  -16.8904   -2.2819    0.0000 O   0  0
  -19.4919   -0.7862    0.0000 C   0  0
  -19.4944    0.7138    0.0000 O   0  0
  -20.7905   -1.5384    0.0000 N   0  0
  -22.0918   -0.7907    0.0000 C   0  0
  -23.3909   -1.5406    0.0000 C   0  0
  -24.6900   -0.7906    0.0000 C   0  0
  -24.6900    0.7094    0.0000 C   0  0
  -25.9897    1.4598    0.0000 C   0  0
  -27.2888    2.2098    0.0000 N   0  0
  -23.3909    1.4594    0.0000 C   0  0
  -23.3910    2.9602    0.0000 C   0  0
  -24.6895    3.7110    0.0000 F   0  0
  -22.0917    3.7098    0.0000 F   0  0
  -23.3902    4.4602    0.0000 F   0  0
  -22.0919    0.7094    0.0000 C   0  0
  -12.9903   -1.5227    0.0000 C   0  0
  -12.9820   -3.0235    0.0000 O   0  0
  -11.6793   -3.7672    0.0000 C   0  0
  -11.6938   -0.7682    0.0000 C   0  0
   -1.2990   -0.7500    0.0000 C   0  0
    0.0000   -1.5000    0.0000 C   0  0
   -0.0031   -3.0008    0.0000 O   0  0
   -1.3032   -3.7490    0.0000 C   0  0
  1  2  1  0
  2  3  1  0
  3  4  2  0
  4  5  1  0
  5  6  2  0
  6  7  1  0
  7  8  2  0
  8  9  1  0
  9 10  2  0
  9 11  1  0
 11 12  2  0
 12 13  1  0
 12 14  1  0
 14 15  2  0
 15 16  1  0
 16 17  2  0
 17 18  1  0
 18 19  2  0
 19 20  1  0
 20 21  1  0
 21 22  1  0
 22 23  1  4
 22 24  1  0
 22 25  1  0
 25 26  2  0
 25 27  1  0
 27 28  1  0
 28 29  2  0
 29 30  1  0
 30 31  2  0
 31 32  1  0
 32 33  3  0
 31 34  1  0
 34 35  1  0
 35 36  1  0
 35 37  1  0
 35 38  1  0
 34 39  2  0
 39 28  1  0
 19 40  1  0
 40 41  1  0
 41 42  1  0
 40 43  2  0
 43 16  1  0
  6 44  1  0
 44 45  2  0
 45  3  1  0
 45 46  1  0
 46 47  1  0
M  END
> <assay_chembl_id>
CHEMBL2051321

> <assay_description>
Cytotoxicity against androgen-dependent human LNCAP cells after 72 hrs by SRB assay

> <document_journal>
Bioorg Med Chem

> <molecule_chembl_id>
CHEMBL2048699

> <standard_value>
73000

> <IC50_uM>
73

> <Activity>
No

> <Canonical_Smiles>
COc1ccc(/C=C/C(=O)/C=C(O)/C=C/c2ccc(OCC(C)(O)C(=O)Nc3ccc(C#N)c(C(F)(F)F)c3)c(OC)c2)cc1OC

$$$$

  SciTegic03142313312D

 46 48  0  0  0  0            999 V2000
    3.8983   -0.7459    0.0000 C   0  0
    2.6003   -1.4977    0.0000 O   0  0
    1.2990   -0.7500    0.0000 C   0  0
    1.2990    0.7500    0.0000 C   0  0
    0.0000    1.5000    0.0000 C   0  0
   -1.2990    0.7500    0.0000 C   0  0
   -2.6003    1.4977    0.0000 C   0  0
   -3.8990    0.7455    0.0000 C   0  0
   -5.2003    1.4932    0.0000 C   0  0
   -5.2029    2.9932    0.0000 O   0  0
   -6.4990    0.7409    0.0000 C   0  0
   -7.8003    1.4887    0.0000 C   0  0
   -7.8029    2.9887    0.0000 O   0  0
   -9.0990    0.7364    0.0000 C   0  0
  -10.4003    1.4841    0.0000 C   0  0
  -11.6990    0.7318    0.0000 C   0  0
  -13.0007    1.4773    0.0000 C   0  0
  -14.2971    0.7228    0.0000 C   0  0
  -14.2919   -0.7772    0.0000 C   0  0
  -15.5906   -1.5295    0.0000 O   0  0
  -16.8919   -0.7817    0.0000 C   0  0
  -18.1906   -1.5339    0.0000 C   0  0
  -19.4919   -0.7862    0.0000 C   0  0
  -20.7905   -1.5384    0.0000 C   0  0
  -20.7880   -3.0384    0.0000 O   0  0
  -22.0918   -0.7907    0.0000 N   0  0
  -23.3905   -1.5429    0.0000 C   0  0
  -24.6922   -0.7974    0.0000 C   0  0
  -25.9887   -1.5519    0.0000 C   0  0
  -25.9835   -3.0519    0.0000 C   0  0
  -27.2807   -3.8068    0.0000 C   0  0
  -28.5771   -4.5612    0.0000 N   0  0
  -24.6819   -3.7974    0.0000 C   0  0
  -24.6767   -5.2982    0.0000 C   0  0
  -25.9727   -6.0535    0.0000 F   0  0
  -23.3749   -6.0433    0.0000 F   0  0
  -24.6708   -6.7982    0.0000 F   0  0
  -23.3854   -3.0429    0.0000 C   0  0
  -12.9903   -1.5227    0.0000 C   0  0
  -12.9820   -3.0235    0.0000 O   0  0
  -11.6793   -3.7672    0.0000 C   0  0
  -11.6938   -0.7682    0.0000 C   0  0
   -1.2990   -0.7500    0.0000 C   0  0
    0.0000   -1.5000    0.0000 C   0  0
   -0.0031   -3.0008    0.0000 O   0  0
   -1.3032   -3.7490    0.0000 C   0  0
  1  2  1  0
  2  3  1  0
  3  4  2  0
  4  5  1  0
  5  6  2  0
  6  7  1  0
  7  8  2  0
  8  9  1  0
  9 10  2  0
  9 11  1  0
 11 12  2  0
 12 13  1  0
 12 14  1  0
 14 15  2  0
 15 16  1  0
 16 17  2  0
 17 18  1  0
 18 19  2  0
 19 20  1  0
 20 21  1  0
 21 22  1  0
 22 23  1  0
 23 24  1  0
 24 25  2  0
 24 26  1  0
 26 27  1  0
 27 28  2  0
 28 29  1  0
 29 30  2  0
 30 31  1  0
 31 32  3  0
 30 33  1  0
 33 34  1  0
 34 35  1  0
 34 36  1  0
 34 37  1  0
 33 38  2  0
 38 27  1  0
 19 39  1  0
 39 40  1  0
 40 41  1  0
 39 42  2  0
 42 16  1  0
  6 43  1  0
 43 44  2  0
 44  3  1  0
 44 45  1  0
 45 46  1  0
M  END
> <assay_chembl_id>
CHEMBL2051321

> <assay_description>
Cytotoxicity against androgen-dependent human LNCAP cells after 72 hrs by SRB assay

> <document_journal>
Bioorg Med Chem

> <molecule_chembl_id>
CHEMBL2048700

> <standard_value>
96300

> <IC50_uM>
96.3

> <Activity>
No

> <Canonical_Smiles>
COc1ccc(/C=C/C(=O)/C=C(O)/C=C/c2ccc(OCCCC(=O)Nc3ccc(C#N)c(C(F)(F)F)c3)c(OC)c2)cc1OC

$$$$

  SciTegic03142313312D

 30 31  0  0  0  0            999 V2000
    3.8983   -0.7459    0.0000 C   0  0
    2.6003   -1.4977    0.0000 O   0  0
    1.2990   -0.7500    0.0000 C   0  0
    1.2990    0.7500    0.0000 C   0  0
    0.0000    1.5000    0.0000 C   0  0
   -1.2990    0.7500    0.0000 C   0  0
   -2.6003    1.4977    0.0000 C   0  0
   -3.8990    0.7455    0.0000 C   0  0
   -5.2003    1.4932    0.0000 C   0  0
   -5.2029    2.9932    0.0000 O   0  0
   -6.4990    0.7409    0.0000 C   0  0
   -6.4964   -0.7591    0.0000 F   0  0
   -7.8003    1.4887    0.0000 C   0  0
   -7.8029    2.9887    0.0000 O   0  0
   -9.0990    0.7364    0.0000 C   0  0
  -10.4003    1.4841    0.0000 C   0  0
  -11.6990    0.7318    0.0000 C   0  0
  -13.0007    1.4773    0.0000 C   0  0
  -14.2971    0.7228    0.0000 C   0  0
  -14.2919   -0.7772    0.0000 C   0  0
  -15.5906   -1.5295    0.0000 O   0  0
  -16.8912   -0.7821    0.0000 C   0  0
  -12.9903   -1.5227    0.0000 C   0  0
  -12.9820   -3.0235    0.0000 O   0  0
  -11.6793   -3.7672    0.0000 C   0  0
  -11.6938   -0.7682    0.0000 C   0  0
   -1.2990   -0.7500    0.0000 C   0  0
    0.0000   -1.5000    0.0000 C   0  0
   -0.0031   -3.0008    0.0000 O   0  0
   -1.3032   -3.7490    0.0000 C   0  0
  1  2  1  0
  2  3  1  0
  3  4  2  0
  4  5  1  0
  5  6  2  0
  6  7  1  0
  7  8  2  0
  8  9  1  0
  9 10  2  0
  9 11  1  0
 11 12  1  0
 11 13  2  0
 13 14  1  0
 13 15  1  0
 15 16  2  0
 16 17  1  0
 17 18  2  0
 18 19  1  0
 19 20  2  0
 20 21  1  0
 21 22  1  0
 20 23  1  0
 23 24  1  0
 24 25  1  0
 23 26  2  0
 26 17  1  0
  6 27  1  0
 27 28  2  0
 28  3  1  0
 28 29  1  0
 29 30  1  0
M  END
> <assay_chembl_id>
CHEMBL2051321

> <assay_description>
Cytotoxicity against androgen-dependent human LNCAP cells after 72 hrs by SRB assay

> <document_journal>
Bioorg Med Chem

> <molecule_chembl_id>
CHEMBL2048800

> <standard_value>
27300

> <IC50_uM>
27.3

> <Activity>
No

> <Canonical_Smiles>
COc1ccc(/C=C/C(=O)/C(F)=C(O)/C=C/c2ccc(OC)c(OC)c2)cc1OC

$$$$

  SciTegic03142313312D

 31 32  0  0  0  0            999 V2000
    3.8983   -0.7459    0.0000 C   0  0
    2.6003   -1.4977    0.0000 O   0  0
    1.2990   -0.7500    0.0000 C   0  0
    1.2990    0.7500    0.0000 C   0  0
    0.0000    1.5000    0.0000 C   0  0
   -1.2990    0.7500    0.0000 C   0  0
   -2.6003    1.4977    0.0000 C   0  0
   -3.8990    0.7455    0.0000 C   0  0
   -5.2003    1.4932    0.0000 C   0  0
   -5.2029    2.9932    0.0000 O   0  0
   -6.4990    0.7409    0.0000 C   0  0
   -5.1988   -0.0070    0.0000 F   0  0
   -6.4964   -0.7591    0.0000 F   0  0
   -7.8003    1.4887    0.0000 C   0  0
   -7.8029    2.9887    0.0000 O   0  0
   -9.0990    0.7364    0.0000 C   0  0
  -10.4003    1.4841    0.0000 C   0  0
  -11.6990    0.7318    0.0000 C   0  0
  -13.0007    1.4773    0.0000 C   0  0
  -14.2971    0.7228    0.0000 C   0  0
  -14.2919   -0.7772    0.0000 C   0  0
  -15.5906   -1.5295    0.0000 O   0  0
  -16.8912   -0.7821    0.0000 C   0  0
  -12.9903   -1.5227    0.0000 C   0  0
  -12.9820   -3.0235    0.0000 O   0  0
  -11.6793   -3.7672    0.0000 C   0  0
  -11.6938   -0.7682    0.0000 C   0  0
   -1.2990   -0.7500    0.0000 C   0  0
    0.0000   -1.5000    0.0000 C   0  0
   -0.0031   -3.0008    0.0000 O   0  0
   -1.3032   -3.7490    0.0000 C   0  0
  1  2  1  0
  2  3  1  0
  3  4  2  0
  4  5  1  0
  5  6  2  0
  6  7  1  0
  7  8  2  0
  8  9  1  0
  9 10  2  0
  9 11  1  0
 11 12  1  0
 11 13  1  0
 11 14  1  0
 14 15  2  0
 14 16  1  0
 16 17  2  0
 17 18  1  0
 18 19  2  0
 19 20  1  0
 20 21  2  0
 21 22  1  0
 22 23  1  0
 21 24  1  0
 24 25  1  0
 25 26  1  0
 24 27  2  0
 27 18  1  0
  6 28  1  0
 28 29  2  0
 29  3  1  0
 29 30  1  0
 30 31  1  0
M  END
> <assay_chembl_id>
CHEMBL2051321

> <assay_description>
Cytotoxicity against androgen-dependent human LNCAP cells after 72 hrs by SRB assay

> <document_journal>
Bioorg Med Chem

> <molecule_chembl_id>
CHEMBL2048801

> <standard_value>
53800

> <IC50_uM>
53.8

> <Activity>
No

> <Canonical_Smiles>
COc1ccc(/C=C/C(=O)C(F)(F)C(=O)/C=C/c2ccc(OC)c(OC)c2)cc1OC

$$$$

  SciTegic03142313312D

 31 33  0  0  0  0            999 V2000
    3.8964    0.7545    0.0000 O   0  0
    3.8990   -0.7455    0.0000 C   0  0
    5.2003   -1.4932    0.0000 C   0  0
    6.4990   -0.7409    0.0000 C   0  0
    7.8003   -1.4887    0.0000 C   0  0
    9.0990   -0.7364    0.0000 O   0  0
   10.4003   -1.4841    0.0000 N   0  3
   11.6982   -0.7323    0.0000 O   0  0
   10.4029   -2.9841    0.0000 O   0  5
    2.6003   -1.4977    0.0000 O   0  0
    1.2990   -0.7500    0.0000 C   0  0
    1.2990    0.7500    0.0000 C   0  0
    0.0000    1.5000    0.0000 C   0  0
   -1.2990    0.7500    0.0000 C   0  0
   -1.2990   -0.7500    0.0000 C   0  0
    0.0000   -1.5000    0.0000 C   0  0
   -0.0031   -3.0008    0.0000 C   0  0
    1.2947   -3.7531    0.0000 O   0  0
   -1.3039   -3.7494    0.0000 O   0  0
   -1.3070   -5.2502    0.0000 C   0  0
   -2.6060   -6.0003    0.0000 C   0  0
   -2.6060   -7.5003    0.0000 C   0  0
   -1.3070   -8.2503    0.0000 C   0  0
   -1.3071   -9.7511    0.0000 C   0  0
   -2.5192  -10.6128    0.0000 C   0  0
   -2.0535  -12.0387    0.0000 C   0  0
   -2.9332  -13.2536    0.0000 S   0  0
   -0.5535  -12.0363    0.0000 S   0  0
   -0.0922  -10.6090    0.0000 S   0  0
   -0.0080   -7.5003    0.0000 C   0  0
   -0.0079   -6.0003    0.0000 C   0  0
  1  2  2  0
  2  3  1  0
  3  4  1  0
  4  5  1  0
  5  6  1  0
  6  7  1  0
  7  8  2  0
  7  9  1  0
  2 10  1  0
 10 11  1  0
 11 12  2  0
 12 13  1  0
 13 14  2  0
 14 15  1  0
 15 16  2  0
 16 11  1  0
 16 17  1  0
 17 18  2  0
 17 19  1  0
 19 20  1  0
 20 21  2  0
 21 22  1  0
 22 23  2  0
 23 24  1  0
 24 25  2  0
 25 26  1  0
 26 27  2  0
 26 28  1  0
 28 29  1  0
 29 24  1  0
 23 30  1  0
 30 31  2  0
 31 20  1  0
M  CHG  2   7   1   9  -1
M  END
> <assay_chembl_id>
CHEMBL2049791

> <assay_description>
Cytotoxicity against human LNCAP cells after 24 hrs by MTT assay

> <document_journal>
ACS Med Chem Lett

> <molecule_chembl_id>
CHEMBL2047532

> <standard_value>
88

> <IC50_uM>
0.088

> <Activity>
Yes

> <Canonical_Smiles>
O=C(CCCO[N+](=O)[O-])Oc1ccccc1C(=O)Oc1ccc(-c2cc(=S)ss2)cc1

$$$$

  SciTegic03142313312D

 37 39  0  0  0  0            999 V2000
    7.8029   -2.9887    0.0000 O   0  0
    7.8003   -1.4887    0.0000 C   0  0
    6.4990   -0.7409    0.0000 C   0  0
    5.2003   -1.4932    0.0000 C   0  0
    3.8990   -0.7455    0.0000 C   0  0
    3.8964    0.7545    0.0000 O   0  0
    2.6003   -1.4977    0.0000 O   0  0
    1.2990   -0.7500    0.0000 C   0  0
    1.2990    0.7500    0.0000 C   0  0
    0.0000    1.5000    0.0000 C   0  0
   -1.2990    0.7500    0.0000 C   0  0
   -1.2990   -0.7500    0.0000 C   0  0
    0.0000   -1.5000    0.0000 C   0  0
   -0.0031   -3.0008    0.0000 C   0  0
    1.2947   -3.7531    0.0000 O   0  0
   -1.3039   -3.7494    0.0000 O   0  0
   -1.3070   -5.2502    0.0000 C   0  0
   -2.6060   -6.0003    0.0000 C   0  0
   -2.6060   -7.5003    0.0000 C   0  0
   -1.3070   -8.2503    0.0000 C   0  0
   -1.3071   -9.7511    0.0000 C   0  0
   -2.5192  -10.6128    0.0000 C   0  0
   -2.0535  -12.0387    0.0000 C   0  0
   -2.9332  -13.2536    0.0000 S   0  0
   -0.5535  -12.0363    0.0000 S   0  0
   -0.0922  -10.6090    0.0000 S   0  0
   -0.0080   -7.5003    0.0000 C   0  0
   -0.0079   -6.0003    0.0000 C   0  0
    9.0990   -0.7364    0.0000 O   0  0
   10.4003   -1.4841    0.0000 C   0  0
   11.6990   -0.7319    0.0000 C   0  0
   13.0002   -1.4796    0.0000 C   0  0
   14.2989   -0.7273    0.0000 C   0  0
   15.6002   -1.4751    0.0000 O   0  0
   16.8989   -0.7228    0.0000 N   0  3
   18.1995   -1.4701    0.0000 O   0  0
   16.8963    0.7772    0.0000 O   0  5
  1  2  2  0
  2  3  1  0
  3  4  1  0
  4  5  1  0
  5  6  2  0
  5  7  1  0
  7  8  1  0
  8  9  2  0
  9 10  1  0
 10 11  2  0
 11 12  1  0
 12 13  2  0
 13  8  1  0
 13 14  1  0
 14 15  2  0
 14 16  1  0
 16 17  1  0
 17 18  2  0
 18 19  1  0
 19 20  2  0
 20 21  1  0
 21 22  2  0
 22 23  1  0
 23 24  2  0
 23 25  1  0
 25 26  1  0
 26 21  1  0
 20 27  1  0
 27 28  2  0
 28 17  1  0
  2 29  1  0
 29 30  1  0
 30 31  1  0
 31 32  1  0
 32 33  1  0
 33 34  1  0
 34 35  1  0
 35 36  2  0
 35 37  1  0
M  CHG  2  35   1  37  -1
M  END
> <assay_chembl_id>
CHEMBL2049791

> <assay_description>
Cytotoxicity against human LNCAP cells after 24 hrs by MTT assay

> <document_journal>
ACS Med Chem Lett

> <molecule_chembl_id>
CHEMBL2047533

> <standard_value>
100

> <IC50_uM>
0.1

> <Activity>
Yes

> <Canonical_Smiles>
O=C(CCC(=O)Oc1ccccc1C(=O)Oc1ccc(-c2cc(=S)ss2)cc1)OCCCCO[N+](=O)[O-]

$$$$

  SciTegic03142313312D

 29 30  0  0  1  0            999 V2000
    3.8964    0.7545    0.0000 O   0  0
    3.8990   -0.7455    0.0000 C   0  0
    5.2003   -1.4932    0.0000 C   0  0
    6.4990   -0.7409    0.0000 C   0  0
    7.8003   -1.4887    0.0000 C   0  0
    9.0990   -0.7364    0.0000 C   0  0
   10.4003   -1.4841    0.0000 C   0  0  2  0  0  0
   11.7517   -0.8631    0.0000 C   0  0
   12.7554   -1.9778    0.0000 C   0  0
   12.0054   -3.2769    0.0000 S   0  0
   10.5381   -2.9650    0.0000 S   0  0
    2.6003   -1.4977    0.0000 O   0  0
    1.2990   -0.7500    0.0000 C   0  0
    1.2990    0.7500    0.0000 C   0  0
    0.0000    1.5000    0.0000 C   0  0
   -1.2990    0.7500    0.0000 C   0  0
   -1.2990   -0.7500    0.0000 C   0  0
    0.0000   -1.5000    0.0000 C   0  0
   -0.0031   -3.0008    0.0000 C   0  0
    1.2947   -3.7531    0.0000 O   0  0
   -1.3039   -3.7494    0.0000 O   0  0
   -1.3070   -5.2502    0.0000 C   0  0
   -2.6078   -5.9988    0.0000 C   0  0
   -2.6109   -7.4996    0.0000 C   0  0
   -3.9117   -8.2482    0.0000 C   0  0
   -3.9148   -9.7490    0.0000 O   0  0
   -5.2156  -10.4976    0.0000 N   0  3
   -5.2187  -11.9975    0.0000 O   0  0
   -6.5133   -9.7453    0.0000 O   0  5
  1  2  2  0
  2  3  1  0
  3  4  1  0
  4  5  1  0
  5  6  1  0
  7  6  1  6
  7  8  1  0
  8  9  1  0
  9 10  1  0
 10 11  1  0
 11  7  1  0
  2 12  1  0
 12 13  1  0
 13 14  2  0
 14 15  1  0
 15 16  2  0
 16 17  1  0
 17 18  2  0
 18 13  1  0
 18 19  1  0
 19 20  2  0
 19 21  1  0
 21 22  1  0
 22 23  1  0
 23 24  1  0
 24 25  1  0
 25 26  1  0
 26 27  1  0
 27 28  2  0
 27 29  1  0
M  CHG  2  27   1  29  -1
M  END
> <assay_chembl_id>
CHEMBL2049791

> <assay_description>
Cytotoxicity against human LNCAP cells after 24 hrs by MTT assay

> <document_journal>
ACS Med Chem Lett

> <molecule_chembl_id>
CHEMBL2047535

> <standard_value>
500

> <IC50_uM>
0.5

> <Activity>
Yes

> <Canonical_Smiles>
O=C(CCCC[C@@H]1CCSS1)Oc1ccccc1C(=O)OCCCCO[N+](=O)[O-]

$$$$

  SciTegic03142313312D

 23 25  0  0  0  0            999 V2000
    3.8907   -5.2570    0.0000 C   0  0
    3.8933   -3.7570    0.0000 C   0  0
    2.5951   -3.0039    0.0000 C   0  0
    2.5973   -1.5031    0.0000 O   0  0
    1.2990   -0.7500    0.0000 C   0  0
    1.2990    0.7500    0.0000 C   0  0
    0.0000    1.5000    0.0000 C   0  0
   -1.2990    0.7500    0.0000 C   0  0
   -2.6003    1.4977    0.0000 C   0  0
   -3.8990    0.7455    0.0000 C   0  0  3  0  0  0
   -4.0317   -0.7359    0.0000 S   0  0
   -5.4979   -1.0529    0.0000 C   0  0
   -6.1032   -2.4253    0.0000 O   0  0
   -6.2524    0.2436    0.0000 N   0  0
   -5.2526    1.3618    0.0000 C   0  0
   -5.5608    2.8298    0.0000 O   0  0
   -1.2990   -0.7500    0.0000 C   0  0
    0.0000   -1.5000    0.0000 C   0  0
    3.8600   -2.2778    0.0000 C   0  0
    5.1605   -1.5302    0.0000 C   0  0
    6.4581   -2.2827    0.0000 C   0  0
    6.4553   -3.7827    0.0000 C   0  0
    5.1548   -4.5302    0.0000 C   0  0
  1  2  1  0
  2  3  1  0
  3  4  1  0
  4  5  1  0
  5  6  2  0
  6  7  1  0
  7  8  2  0
  8  9  1  0
 10  9  1  4
 10 11  1  0
 11 12  1  0
 12 13  2  0
 12 14  1  0
 14 15  1  0
 15 10  1  0
 15 16  2  0
  8 17  1  0
 17 18  2  0
 18  5  1  0
  2 19  1  0
 19 20  1  0
 20 21  1  0
 21 22  1  0
 22 23  1  0
 23  2  1  0
M  END
> <assay_chembl_id>
CHEMBL2061378

> <assay_description>
Antiproliferative activity against human LNCAP cells after 72 hrs by MTT assay in presence of 10% FBS

> <document_journal>
J Med Chem

> <molecule_chembl_id>
CHEMBL7002

> <standard_value>
60000

> <IC50_uM>
60

> <Activity>
No

> <Canonical_Smiles>
CC1(COc2ccc(CC3SC(=O)NC3=O)cc2)CCCCC1

$$$$

  SciTegic03142313312D

 23 25  0  0  0  0            999 V2000
    3.8907   -5.2570    0.0000 C   0  0
    3.8933   -3.7570    0.0000 C   0  0
    2.5951   -3.0039    0.0000 C   0  0
    2.5973   -1.5031    0.0000 O   0  0
    1.2990   -0.7500    0.0000 C   0  0
    1.2990    0.7500    0.0000 C   0  0
    0.0000    1.5000    0.0000 C   0  0
   -1.2990    0.7500    0.0000 C   0  0
   -2.6003    1.4977    0.0000 C   0  0
   -3.8990    0.7455    0.0000 C   0  0
   -4.0317   -0.7359    0.0000 S   0  0
   -5.4979   -1.0529    0.0000 C   0  0
   -6.1032   -2.4253    0.0000 O   0  0
   -6.2524    0.2436    0.0000 N   0  0
   -5.2526    1.3618    0.0000 C   0  0
   -5.5608    2.8298    0.0000 O   0  0
   -1.2990   -0.7500    0.0000 C   0  0
    0.0000   -1.5000    0.0000 C   0  0
    3.8600   -2.2778    0.0000 C   0  0
    5.1605   -1.5302    0.0000 C   0  0
    6.4581   -2.2827    0.0000 C   0  0
    6.4553   -3.7827    0.0000 C   0  0
    5.1548   -4.5302    0.0000 C   0  0
  1  2  1  0
  2  3  1  0
  3  4  1  0
  4  5  1  0
  5  6  2  0
  6  7  1  0
  7  8  2  0
  8  9  1  0
  9 10  2  0
 10 11  1  0
 11 12  1  0
 12 13  1  0
 12 14  2  0
 14 15  1  0
 15 10  1  0
 15 16  2  0
  8 17  1  0
 17 18  2  0
 18  5  1  0
  2 19  1  0
 19 20  1  0
 20 21  1  0
 21 22  1  0
 22 23  1  0
 23  2  1  0
M  END
> <assay_chembl_id>
CHEMBL2061378

> <assay_description>
Antiproliferative activity against human LNCAP cells after 72 hrs by MTT assay in presence of 10% FBS

> <document_journal>
J Med Chem

> <molecule_chembl_id>
CHEMBL260373

> <standard_value>
28000

> <IC50_uM>
28

> <Activity>
No

> <Canonical_Smiles>
CC1(COc2ccc(/C=C3\SC(O)=NC3=O)cc2)CCCCC1

$$$$

  SciTegic03142313312D

 17 18  0  0  0  0            999 V2000
    3.5681   -7.7717    0.0000 C   0  0
    2.3202   -6.9394    0.0000 C   0  0
    0.9757   -7.6044    0.0000 C   0  0
    2.4161   -5.4416    0.0000 C   0  0
    1.1675   -4.6089    0.0000 C   0  0
    1.2634   -3.1111    0.0000 C   0  0
    0.0148   -2.2784    0.0000 C   0  0  3  0  0  0
   -1.3297   -2.9434    0.0000 C   0  0
    0.1097   -0.7860    0.0000 C   0  0  3  0  0  0
    1.4440   -1.4074    0.0000 C   0  0
    1.1881    0.0000    0.0000 C   0  0
    0.0000    0.5484    0.0000 C   0  0  3  0  0  0
    1.3325    1.2371    0.0000 C   0  0
   -1.5537    0.0000    0.0000 C   0  0
   -1.3709   -1.4257    0.0000 C   0  0
    0.0000    2.1386    0.0000 O   0  0
    0.3656    1.0236    0.0000 O   0  0
  1  2  1  0
  2  3  1  0
  2  4  2  0
  4  5  1  0
  5  6  1  0
  6  7  1  0
  7  8  1  4
  7  9  1  0
  9 10  1  4
 10 11  2  0
 11 12  1  0
 12 13  1  4
 12 14  1  0
 14 15  1  0
 15  9  1  0
 12 16  1  0
 16 17  1  0
 17  9  1  0
M  END
> <assay_chembl_id>
CHEMBL2064892

> <assay_description>
Cytotoxicity against human LNCAP cells after 4 days by MTT assay

> <document_journal>
Bioorg Med Chem

> <molecule_chembl_id>
CHEMBL2064724

> <standard_value>
23400

> <IC50_uM>
23.4

> <Activity>
No

> <Canonical_Smiles>
CC(C)=CCCC(C)C12C=CC(C)(CC1)OO2

$$$$

  SciTegic03142313312D

 27 30  0  0  0  0            999 V2000
   -9.7273   -4.6840    0.0000 C   0  0
   -9.1506   -3.2993    0.0000 O   0  0
   -7.6624   -3.1053    0.0000 C   0  0
   -6.7532   -4.2984    0.0000 C   0  0
   -5.2654   -4.1077    0.0000 C   0  0
   -4.3533   -5.2996    0.0000 N   0  0
   -2.8675   -5.1069    0.0000 C   0  0
   -1.8348   -6.1949    0.0000 N   0  0
   -0.4810   -5.5489    0.0000 N   0  0
   -0.6928   -4.0817    0.0000 C   0  0
    0.3114   -2.9665    0.0000 C   0  0
    1.8032   -3.1233    0.0000 C   0  0
    2.4133   -1.7530    0.0000 N   0  0
    1.2990   -0.7500    0.0000 C   0  0
    1.2990    0.7500    0.0000 C   0  0
    0.0000    1.5000    0.0000 C   0  0
   -1.2990    0.7500    0.0000 C   0  0
   -1.2990   -0.7500    0.0000 C   0  0
    0.0000   -1.5000    0.0000 C   0  0
   -2.1519   -3.7886    0.0000 S   0  0
   -4.6867   -2.7237    0.0000 C   0  0
   -5.5959   -1.5307    0.0000 C   0  0
   -5.0140   -0.1472    0.0000 O   0  0
   -3.5260    0.0415    0.0000 C   0  0
   -7.0837   -1.7215    0.0000 C   0  0
   -7.9958   -0.5296    0.0000 O   0  0
   -9.4833   -0.7225    0.0000 C   0  0
  1  2  1  0
  2  3  1  0
  3  4  2  0
  4  5  1  0
  5  6  1  0
  6  7  1  0
  7  8  2  0
  8  9  1  0
  9 10  2  0
 10 11  1  0
 11 12  2  0
 12 13  1  0
 13 14  1  0
 14 15  2  0
 15 16  1  0
 16 17  2  0
 17 18  1  0
 18 19  2  0
 19 11  1  0
 19 14  1  0
 10 20  1  0
 20  7  1  0
  5 21  2  0
 21 22  1  0
 22 23  1  0
 23 24  1  0
 22 25  2  0
 25  3  1  0
 25 26  1  0
 26 27  1  0
M  END
> <assay_chembl_id>
CHEMBL2065396

> <assay_description>
Cytotoxicity against human LNCAP cells after 48 hrs by MTT assay

> <document_journal>
Eur J Med Chem

> <molecule_chembl_id>
CHEMBL2064076

> <standard_value>
150

> <IC50_uM>
0.15

> <Activity>
Yes

> <Canonical_Smiles>
COc1cc(Nc2nnc(-c3c[nH]c4ccccc34)s2)cc(OC)c1OC

$$$$

  SciTegic03142313312D

 15 16  0  0  0  0            999 V2000
    2.5981   -1.5000    0.0000 O   0  0
    1.2990   -0.7500    0.0000 C   0  0
    1.2990    0.7500    0.0000 O   0  0
    0.0000    1.5000    0.0000 C   0  0
   -0.0031    3.0008    0.0000 C   0  0
   -1.3032    3.7490    0.0000 Br  0  0
   -1.2990    0.7500    0.0000 C   0  0
   -1.2990   -0.7500    0.0000 C   0  0
    0.0000   -1.5000    0.0000 C   0  0  3  0  0  0
    0.0000   -3.0008    0.0000 C   0  0
   -1.2978   -3.7529    0.0000 C   0  0
   -1.2955   -5.2529    0.0000 C   0  0
    0.0048   -6.0009    0.0000 C   0  0
    1.3026   -5.2488    0.0000 C   0  0
    1.3002   -3.7488    0.0000 C   0  0
  1  2  2  0
  2  3  1  0
  3  4  1  0
  4  5  2  0
  5  6  1  0
  4  7  1  0
  7  8  1  0
  8  9  1  0
  9  2  1  0
  9 10  1  4
 10 11  2  0
 11 12  1  0
 12 13  2  0
 13 14  1  0
 14 15  2  0
 15 10  1  0
M  END
> <assay_chembl_id>
CHEMBL2090142

> <assay_description>
Antineoplastic activity against human LNCAP cells after 24 hrs by MTT assay

> <document_journal>
Bioorg Med Chem Lett

> <molecule_chembl_id>
CHEMBL2088285

> <standard_value>
31000

> <IC50_uM>
31

> <Activity>
No

> <Canonical_Smiles>
O=C1O/C(=C/Br)CCC1c1ccccc1

$$$$

  SciTegic03142313312D

 18 19  0  0  1  0            999 V2000
    5.1970    0.0064    0.0000 C   0  0
    3.8990   -0.7455    0.0000 C   0  0
    2.6003   -1.4977    0.0000 C   0  0
    1.2990   -0.7500    0.0000 N   0  0
    1.2990    0.7500    0.0000 C   0  0
    0.0000    1.5000    0.0000 C   0  0
   -0.0031    3.0008    0.0000 C   0  0
    1.2939    3.7543    0.0000 I   0  0
   -1.2990    0.7500    0.0000 O   0  0
   -1.2990   -0.7500    0.0000 C   0  0
   -2.5981   -1.5000    0.0000 O   0  0
    0.0000   -1.5000    0.0000 C   0  0  2  0  0  0
    0.0000   -3.0008    0.0000 C   0  0
    1.2979   -3.7529    0.0000 C   0  0
    1.2955   -5.2529    0.0000 C   0  0
   -0.0047   -6.0009    0.0000 C   0  0
   -1.3026   -5.2488    0.0000 C   0  0
   -1.3002   -3.7488    0.0000 C   0  0
  1  2  3  0
  2  3  1  0
  3  4  1  0
  4  5  1  0
  5  6  1  0
  6  7  2  0
  7  8  1  0
  6  9  1  0
  9 10  1  0
 10 11  2  0
 10 12  1  0
 12  4  1  0
 12 13  1  1
 13 14  2  0
 14 15  1  0
 15 16  2  0
 16 17  1  0
 17 18  2  0
 18 13  1  0
M  END
> <assay_chembl_id>
CHEMBL2090142

> <assay_description>
Antineoplastic activity against human LNCAP cells after 24 hrs by MTT assay

> <document_journal>
Bioorg Med Chem Lett

> <molecule_chembl_id>
CHEMBL2088288

> <standard_value>
26000

> <IC50_uM>
26

> <Activity>
No

> <Canonical_Smiles>
C#CCN1C/C(=C\I)OC(=O)[C@@H]1c1ccccc1

$$$$

  SciTegic03142313312D

 19 20  0  0  1  0            999 V2000
    5.1970    0.0064    0.0000 C   0  0
    3.8990   -0.7455    0.0000 C   0  0
    2.6003   -1.4977    0.0000 C   0  0
    1.2990   -0.7500    0.0000 N   0  0
    1.2990    0.7500    0.0000 C   0  0
    0.0000    1.5000    0.0000 C   0  0
   -0.0031    3.0008    0.0000 C   0  0
    1.2939    3.7543    0.0000 Br  0  0
   -1.2990    0.7500    0.0000 O   0  0
   -1.2990   -0.7500    0.0000 C   0  0
   -2.5981   -1.5000    0.0000 O   0  0
    0.0000   -1.5000    0.0000 C   0  0  2  0  0  0
   -0.0031   -3.0008    0.0000 C   0  0
   -1.3039   -3.7494    0.0000 C   0  0
   -1.3092   -5.2494    0.0000 C   0  0
   -2.6108   -5.9949    0.0000 C   0  0
   -3.9072   -5.2404    0.0000 C   0  0
   -3.9020   -3.7404    0.0000 C   0  0
   -2.6004   -2.9949    0.0000 C   0  0
  1  2  3  0
  2  3  1  0
  3  4  1  0
  4  5  1  0
  5  6  1  0
  6  7  2  0
  7  8  1  0
  6  9  1  0
  9 10  1  0
 10 11  2  0
 10 12  1  0
 12  4  1  0
 12 13  1  1
 13 14  1  0
 14 15  2  0
 15 16  1  0
 16 17  2  0
 17 18  1  0
 18 19  2  0
 19 14  1  0
M  END
> <assay_chembl_id>
CHEMBL2090142

> <assay_description>
Antineoplastic activity against human LNCAP cells after 24 hrs by MTT assay

> <document_journal>
Bioorg Med Chem Lett

> <molecule_chembl_id>
CHEMBL2088289

> <standard_value>
41000

> <IC50_uM>
41

> <Activity>
No

> <Canonical_Smiles>
C#CCN1C/C(=C\Br)OC(=O)[C@@H]1Cc1ccccc1

$$$$

  SciTegic03142313312D

 12 12  0  0  0  0            999 V2000
    2.5930   -4.5039    0.0000 C   0  0
    2.5951   -3.0039    0.0000 C   0  0
    2.5973   -1.5031    0.0000 C   0  0
    1.2990   -0.7500    0.0000 N   0  0
    1.2990    0.7500    0.0000 C   0  0
    0.0000    1.5000    0.0000 C   0  0
    0.0000    3.0000    0.0000 O   0  0
   -1.2990    0.7500    0.0000 O   0  0
   -1.2990   -0.7500    0.0000 C   0  0
   -2.5972   -1.5031    0.0000 C   0  0
   -2.5951   -3.0031    0.0000 Br  0  0
    0.0000   -1.5000    0.0000 C   0  0
  1  2  3  0
  2  3  1  0
  3  4  1  0
  4  5  1  0
  5  6  1  0
  6  7  2  0
  6  8  1  0
  8  9  1  0
  9 10  2  0
 10 11  1  0
  9 12  1  0
 12  4  1  0
M  END
> <assay_chembl_id>
CHEMBL2090142

> <assay_description>
Antineoplastic activity against human LNCAP cells after 24 hrs by MTT assay

> <document_journal>
Bioorg Med Chem Lett

> <molecule_chembl_id>
CHEMBL2088290

> <standard_value>
25000

> <IC50_uM>
25

> <Activity>
No

> <Canonical_Smiles>
C#CCN1CC(=O)O/C(=C/Br)C1

$$$$

  SciTegic03142313312D

 20 23  0  0  0  0            999 V2000
    3.1882    2.6402    0.0000 C   0  0
    2.7248    1.2135    0.0000 C   0  0
    3.6065    0.0000    0.0000 C   0  0
    2.7248   -1.2135    0.0000 O   0  0
    1.2990   -0.7500    0.0000 C   0  0
    1.2990    0.7500    0.0000 C   0  0
    0.0000    1.5000    0.0000 C   0  0
    0.0000    3.0000    0.0000 O   0  0
   -1.2990    0.7500    0.0000 C   0  0
   -2.5981    1.5000    0.0000 O   0  0
   -1.2990   -0.7500    0.0000 C   0  0
    0.0000   -1.5000    0.0000 C   0  0
    0.0000   -3.0000    0.0000 C   0  0
   -1.2990   -3.7500    0.0000 C   0  0
   -2.5981   -3.0000    0.0000 C   0  0
   -2.5981   -1.5000    0.0000 C   0  0
   -3.8971   -0.7500    0.0000 C   0  0
   -5.1962   -1.5000    0.0000 C   0  0
   -5.1961   -3.0000    0.0000 C   0  0
   -3.8971   -3.7500    0.0000 C   0  0
  1  2  1  0
  2  3  2  0
  3  4  1  0
  4  5  1  0
  5  6  2  0
  6  2  1  0
  6  7  1  0
  7  8  2  0
  7  9  1  0
  9 10  2  0
  9 11  1  0
 11 12  2  0
 12  5  1  0
 12 13  1  0
 13 14  2  0
 14 15  1  0
 15 16  2  0
 16 11  1  0
 16 17  1  0
 17 18  1  0
 18 19  1  0
 19 20  1  0
 20 15  1  0
M  END
> <assay_chembl_id>
CHEMBL2169234

> <assay_description>
Cytotoxicity against human LNCAP cells incubated for 72 hrs by MTT assay

> <document_journal>
J Med Chem

> <molecule_chembl_id>
CHEMBL2165454

> <standard_value>
600

> <IC50_uM>
0.6

> <Activity>
Yes

> <Canonical_Smiles>
Cc1coc2c1C(=O)C(=O)c1c-2ccc2c1CCCC2

$$$$

  SciTegic03142313312D

 22 25  0  0  0  0            999 V2000
    3.1882    2.6402    0.0000 C   0  0
    2.7248    1.2135    0.0000 C   0  0
    3.6065    0.0000    0.0000 C   0  0
    2.7248   -1.2135    0.0000 O   0  0
    1.2990   -0.7500    0.0000 C   0  0
    1.2990    0.7500    0.0000 C   0  0
    0.0000    1.5000    0.0000 C   0  0
    0.0000    3.0000    0.0000 O   0  0
   -1.2990    0.7500    0.0000 C   0  0
   -2.5981    1.5000    0.0000 O   0  0
   -1.2990   -0.7500    0.0000 C   0  0
    0.0000   -1.5000    0.0000 C   0  0
    0.0000   -3.0000    0.0000 C   0  0
   -1.2990   -3.7500    0.0000 C   0  0
   -2.5981   -3.0000    0.0000 C   0  0
   -2.5981   -1.5000    0.0000 C   0  0
   -3.8971   -0.7500    0.0000 C   0  0
   -5.1962   -1.5000    0.0000 C   0  0
   -5.1961   -3.0000    0.0000 C   0  0
   -6.4771   -2.2196    0.0000 C   0  0
   -5.1609   -4.4996    0.0000 C   0  0
   -3.8971   -3.7500    0.0000 C   0  0
  1  2  1  0
  2  3  2  0
  3  4  1  0
  4  5  1  0
  5  6  2  0
  6  2  1  0
  6  7  1  0
  7  8  2  0
  7  9  1  0
  9 10  2  0
  9 11  1  0
 11 12  2  0
 12  5  1  0
 12 13  1  0
 13 14  2  0
 14 15  1  0
 15 16  2  0
 16 11  1  0
 16 17  1  0
 17 18  1  0
 18 19  1  0
 19 20  1  0
 19 21  1  0
 19 22  1  0
 22 15  1  0
M  END
> <assay_chembl_id>
CHEMBL2169234

> <assay_description>
Cytotoxicity against human LNCAP cells incubated for 72 hrs by MTT assay

> <document_journal>
J Med Chem

> <molecule_chembl_id>
CHEMBL2165461

> <standard_value>
700

> <IC50_uM>
0.7

> <Activity>
Yes

> <Canonical_Smiles>
Cc1coc2c1C(=O)C(=O)c1c-2ccc2c1CCC(C)(C)C2

$$$$

  SciTegic03142313312D

 22 25  0  0  0  0            999 V2000
    3.1882    2.6402    0.0000 C   0  0
    2.7248    1.2135    0.0000 C   0  0
    3.6065    0.0000    0.0000 C   0  0
    2.7248   -1.2135    0.0000 O   0  0
    1.2990   -0.7500    0.0000 C   0  0
    1.2990    0.7500    0.0000 C   0  0
    0.0000    1.5000    0.0000 C   0  0
    0.0000    3.0000    0.0000 O   0  0
   -1.2990    0.7500    0.0000 C   0  0
   -2.5981    1.5000    0.0000 O   0  0
   -1.2990   -0.7500    0.0000 C   0  0
    0.0000   -1.5000    0.0000 C   0  0
    0.0000   -3.0000    0.0000 C   0  0
   -1.2990   -3.7500    0.0000 C   0  0
   -2.5981   -3.0000    0.0000 C   0  0
   -2.5981   -1.5000    0.0000 C   0  0
   -3.8971   -0.7500    0.0000 C   0  0
   -5.1962   -1.5000    0.0000 C   0  0
   -5.1961   -3.0000    0.0000 C   0  0
   -3.8971   -3.7500    0.0000 C   0  0
   -2.5807   -4.4691    0.0000 C   0  0
   -5.2134   -4.4693    0.0000 C   0  0
  1  2  1  0
  2  3  2  0
  3  4  1  0
  4  5  1  0
  5  6  2  0
  6  2  1  0
  6  7  1  0
  7  8  2  0
  7  9  1  0
  9 10  2  0
  9 11  1  0
 11 12  2  0
 12  5  1  0
 12 13  1  0
 13 14  2  0
 14 15  1  0
 15 16  2  0
 16 11  1  0
 16 17  1  0
 17 18  1  0
 18 19  1  0
 19 20  1  0
 20 15  1  0
 20 21  1  0
 20 22  1  0
M  END
> <assay_chembl_id>
CHEMBL2169234

> <assay_description>
Cytotoxicity against human LNCAP cells incubated for 72 hrs by MTT assay

> <document_journal>
J Med Chem

> <molecule_chembl_id>
CHEMBL187266

> <standard_value>
500

> <IC50_uM>
0.5

> <Activity>
Yes

> <Canonical_Smiles>
Cc1coc2c1C(=O)C(=O)c1c-2ccc2c1CCCC2(C)C

$$$$

  SciTegic03142313312D

 28 31  0  0  0  0            999 V2000
   -9.7273   -4.6840    0.0000 C   0  0
   -9.1506   -3.2993    0.0000 O   0  0
   -7.6624   -3.1053    0.0000 C   0  0
   -6.7532   -4.2984    0.0000 C   0  0
   -5.2654   -4.1077    0.0000 C   0  0
   -4.3533   -5.2996    0.0000 C   0  0
   -4.9296   -6.6845    0.0000 O   0  0
   -2.8675   -5.1069    0.0000 C   0  0
   -1.8348   -6.1949    0.0000 C   0  0
   -0.4810   -5.5489    0.0000 N   0  0
   -0.6928   -4.0817    0.0000 C   0  0
    0.3114   -2.9665    0.0000 C   0  0
    1.8032   -3.1233    0.0000 C   0  0
    2.4133   -1.7530    0.0000 S   0  0
    1.2990   -0.7500    0.0000 C   0  0
    1.2990    0.7500    0.0000 C   0  0
    0.0000    1.5000    0.0000 C   0  0
   -1.2990    0.7500    0.0000 C   0  0
   -1.2990   -0.7500    0.0000 C   0  0
    0.0000   -1.5000    0.0000 C   0  0
   -2.1519   -3.7886    0.0000 N   0  0
   -4.6867   -2.7237    0.0000 C   0  0
   -5.5959   -1.5307    0.0000 C   0  0
   -5.0140   -0.1472    0.0000 O   0  0
   -3.5260    0.0415    0.0000 C   0  0
   -7.0837   -1.7215    0.0000 C   0  0
   -7.9958   -0.5296    0.0000 O   0  0
   -9.4833   -0.7225    0.0000 C   0  0
  1  2  1  0
  2  3  1  0
  3  4  2  0
  4  5  1  0
  5  6  1  0
  6  7  2  0
  6  8  1  0
  8  9  2  0
  9 10  1  0
 10 11  1  0
 11 12  1  0
 12 13  2  0
 13 14  1  0
 14 15  1  0
 15 16  2  0
 16 17  1  0
 17 18  2  0
 18 19  1  0
 19 20  2  0
 20 12  1  0
 20 15  1  0
 11 21  2  0
 21  8  1  0
  5 22  2  0
 22 23  1  0
 23 24  1  0
 24 25  1  0
 23 26  2  0
 26  3  1  0
 26 27  1  0
 27 28  1  0
M  END
> <assay_chembl_id>
CHEMBL2168102

> <assay_description>
Antiproliferative activity against human LNCAP cells after 48 hrs by SRB assay

> <document_journal>
J Med Chem

> <molecule_chembl_id>
CHEMBL2163635

> <standard_value>
29.1

> <IC50_uM>
0.0291

> <Activity>
Yes

> <Canonical_Smiles>
COc1cc(C(=O)c2c[nH]c(-c3csc4ccccc34)n2)cc(OC)c1OC

$$$$

  SciTegic03142313312D

 28 31  0  0  0  0            999 V2000
   -9.7273   -4.6840    0.0000 C   0  0
   -9.1506   -3.2993    0.0000 O   0  0
   -7.6624   -3.1053    0.0000 C   0  0
   -6.7532   -4.2984    0.0000 C   0  0
   -5.2654   -4.1077    0.0000 C   0  0
   -4.3533   -5.2996    0.0000 C   0  0
   -4.9296   -6.6845    0.0000 O   0  0
   -2.8675   -5.1069    0.0000 C   0  0
   -1.8348   -6.1949    0.0000 C   0  0
   -0.4810   -5.5489    0.0000 N   0  0
   -0.6928   -4.0817    0.0000 C   0  0
    0.3114   -2.9665    0.0000 C   0  0
    1.8032   -3.1233    0.0000 C   0  0
    2.4133   -1.7530    0.0000 O   0  0
    1.2990   -0.7500    0.0000 C   0  0
    1.2990    0.7500    0.0000 C   0  0
    0.0000    1.5000    0.0000 C   0  0
   -1.2990    0.7500    0.0000 C   0  0
   -1.2990   -0.7500    0.0000 C   0  0
    0.0000   -1.5000    0.0000 C   0  0
   -2.1519   -3.7886    0.0000 N   0  0
   -4.6867   -2.7237    0.0000 C   0  0
   -5.5959   -1.5307    0.0000 C   0  0
   -5.0140   -0.1472    0.0000 O   0  0
   -3.5260    0.0415    0.0000 C   0  0
   -7.0837   -1.7215    0.0000 C   0  0
   -7.9958   -0.5296    0.0000 O   0  0
   -9.4833   -0.7225    0.0000 C   0  0
  1  2  1  0
  2  3  1  0
  3  4  2  0
  4  5  1  0
  5  6  1  0
  6  7  2  0
  6  8  1  0
  8  9  2  0
  9 10  1  0
 10 11  1  0
 11 12  1  0
 12 13  2  0
 13 14  1  0
 14 15  1  0
 15 16  2  0
 16 17  1  0
 17 18  2  0
 18 19  1  0
 19 20  2  0
 20 12  1  0
 20 15  1  0
 11 21  2  0
 21  8  1  0
  5 22  2  0
 22 23  1  0
 23 24  1  0
 24 25  1  0
 23 26  2  0
 26  3  1  0
 26 27  1  0
 27 28  1  0
M  END
> <assay_chembl_id>
CHEMBL2168102

> <assay_description>
Antiproliferative activity against human LNCAP cells after 48 hrs by SRB assay

> <document_journal>
J Med Chem

> <molecule_chembl_id>
CHEMBL2163634

> <standard_value>
14.1

> <IC50_uM>
0.0141

> <Activity>
Yes

> <Canonical_Smiles>
COc1cc(C(=O)c2c[nH]c(-c3coc4ccccc34)n2)cc(OC)c1OC

$$$$

  SciTegic03142313312D

 30 33  0  0  0  0            999 V2000
   -9.7273   -4.6840    0.0000 C   0  0
   -9.1506   -3.2993    0.0000 O   0  0
   -7.6624   -3.1053    0.0000 C   0  0
   -6.7532   -4.2984    0.0000 C   0  0
   -5.2654   -4.1077    0.0000 C   0  0
   -4.3533   -5.2996    0.0000 C   0  0
   -4.9296   -6.6845    0.0000 O   0  0
   -2.8675   -5.1069    0.0000 C   0  0
   -1.8348   -6.1949    0.0000 C   0  0
   -0.4810   -5.5489    0.0000 N   0  0
    0.8417   -6.2564    0.0000 C   0  0
   -0.6928   -4.0817    0.0000 C   0  0
    0.3114   -2.9665    0.0000 C   0  0
    1.8032   -3.1233    0.0000 C   0  0
    2.4133   -1.7530    0.0000 N   0  0
    3.8805   -1.4410    0.0000 C   0  0
    1.2990   -0.7500    0.0000 C   0  0
    1.2990    0.7500    0.0000 C   0  0
    0.0000    1.5000    0.0000 C   0  0
   -1.2990    0.7500    0.0000 C   0  0
   -1.2990   -0.7500    0.0000 C   0  0
    0.0000   -1.5000    0.0000 C   0  0
   -2.1519   -3.7886    0.0000 N   0  0
   -4.6867   -2.7237    0.0000 C   0  0
   -5.5959   -1.5307    0.0000 C   0  0
   -5.0140   -0.1472    0.0000 O   0  0
   -3.5260    0.0415    0.0000 C   0  0
   -7.0837   -1.7215    0.0000 C   0  0
   -7.9958   -0.5296    0.0000 O   0  0
   -9.4833   -0.7225    0.0000 C   0  0
  1  2  1  0
  2  3  1  0
  3  4  2  0
  4  5  1  0
  5  6  1  0
  6  7  2  0
  6  8  1  0
  8  9  2  0
  9 10  1  0
 10 11  1  0
 10 12  1  0
 12 13  1  0
 13 14  2  0
 14 15  1  0
 15 16  1  0
 15 17  1  0
 17 18  2  0
 18 19  1  0
 19 20  2  0
 20 21  1  0
 21 22  2  0
 22 13  1  0
 22 17  1  0
 12 23  2  0
 23  8  1  0
  5 24  2  0
 24 25  1  0
 25 26  1  0
 26 27  1  0
 25 28  2  0
 28  3  1  0
 28 29  1  0
 29 30  1  0
M  END
> <assay_chembl_id>
CHEMBL2168102

> <assay_description>
Antiproliferative activity against human LNCAP cells after 48 hrs by SRB assay

> <document_journal>
J Med Chem

> <molecule_chembl_id>
CHEMBL2163633

> <standard_value>
35.9

> <IC50_uM>
0.0359

> <Activity>
Yes

> <Canonical_Smiles>
COc1cc(C(=O)c2cn(C)c(-c3cn(C)c4ccccc34)n2)cc(OC)c1OC

$$$$

  SciTegic03142313312D

 37 41  0  0  0  0            999 V2000
   -9.7273   -4.6840    0.0000 C   0  0
   -9.1506   -3.2993    0.0000 O   0  0
   -7.6624   -3.1053    0.0000 C   0  0
   -6.7532   -4.2984    0.0000 C   0  0
   -5.2654   -4.1077    0.0000 C   0  0
   -4.3533   -5.2996    0.0000 C   0  0
   -4.9296   -6.6845    0.0000 O   0  0
   -2.8675   -5.1069    0.0000 C   0  0
   -1.8348   -6.1949    0.0000 C   0  0
   -0.4810   -5.5489    0.0000 N   0  0
   -0.6928   -4.0817    0.0000 C   0  0
    0.3114   -2.9665    0.0000 C   0  0
    1.8032   -3.1233    0.0000 C   0  0
    2.4133   -1.7530    0.0000 N   0  0
    3.8788   -1.4412    0.0000 S   0  0
    4.3416   -0.0143    0.0000 O   0  0
    2.8747   -0.3268    0.0000 O   0  0
    4.8840   -2.5556    0.0000 C   0  0
    4.4216   -3.9826    0.0000 C   0  0
    5.4263   -5.0965    0.0000 C   0  0
    6.8932   -4.7834    0.0000 C   0  0
    7.3556   -3.3564    0.0000 C   0  0
    6.3509   -2.2425    0.0000 C   0  0
    1.2990   -0.7500    0.0000 C   0  0
    1.2990    0.7500    0.0000 C   0  0
    0.0000    1.5000    0.0000 C   0  0
   -1.2990    0.7500    0.0000 C   0  0
   -1.2990   -0.7500    0.0000 C   0  0
    0.0000   -1.5000    0.0000 C   0  0
   -2.1519   -3.7886    0.0000 N   0  0
   -4.6867   -2.7237    0.0000 C   0  0
   -5.5959   -1.5307    0.0000 C   0  0
   -5.0140   -0.1472    0.0000 O   0  0
   -3.5260    0.0415    0.0000 C   0  0
   -7.0837   -1.7215    0.0000 C   0  0
   -7.9958   -0.5296    0.0000 O   0  0
   -9.4833   -0.7225    0.0000 C   0  0
  1  2  1  0
  2  3  1  0
  3  4  2  0
  4  5  1  0
  5  6  1  0
  6  7  2  0
  6  8  1  0
  8  9  2  0
  9 10  1  0
 10 11  1  0
 11 12  1  0
 12 13  2  0
 13 14  1  0
 14 15  1  0
 15 16  2  0
 15 17  2  0
 15 18  1  0
 18 19  2  0
 19 20  1  0
 20 21  2  0
 21 22  1  0
 22 23  2  0
 23 18  1  0
 14 24  1  0
 24 25  2  0
 25 26  1  0
 26 27  2  0
 27 28  1  0
 28 29  2  0
 29 12  1  0
 29 24  1  0
 11 30  2  0
 30  8  1  0
  5 31  2  0
 31 32  1  0
 32 33  1  0
 33 34  1  0
 32 35  2  0
 35  3  1  0
 35 36  1  0
 36 37  1  0
M  END
> <assay_chembl_id>
CHEMBL2168102

> <assay_description>
Antiproliferative activity against human LNCAP cells after 48 hrs by SRB assay

> <document_journal>
J Med Chem

> <molecule_chembl_id>
CHEMBL2163632

> <standard_value>
107

> <IC50_uM>
0.107

> <Activity>
Yes

> <Canonical_Smiles>
COc1cc(C(=O)c2c[nH]c(-c3cn(S(=O)(=O)c4ccccc4)c4ccccc34)n2)cc(OC)c1OC

$$$$

  SciTegic03142313312D

 28 31  0  0  0  0            999 V2000
   -9.7273   -4.6840    0.0000 C   0  0
   -9.1506   -3.2993    0.0000 O   0  0
   -7.6624   -3.1053    0.0000 C   0  0
   -6.7532   -4.2984    0.0000 C   0  0
   -5.2654   -4.1077    0.0000 C   0  0
   -4.3533   -5.2996    0.0000 C   0  0
   -4.9296   -6.6845    0.0000 O   0  0
   -2.8675   -5.1069    0.0000 C   0  0
   -1.8348   -6.1949    0.0000 C   0  0
   -0.4810   -5.5489    0.0000 N   0  0
   -0.6928   -4.0817    0.0000 C   0  0
    0.3114   -2.9665    0.0000 C   0  0
    1.8032   -3.1233    0.0000 C   0  0
    2.4133   -1.7530    0.0000 N   0  0
    1.2990   -0.7500    0.0000 C   0  0
    1.2990    0.7500    0.0000 C   0  0
    0.0000    1.5000    0.0000 C   0  0
   -1.2990    0.7500    0.0000 C   0  0
   -1.2990   -0.7500    0.0000 C   0  0
    0.0000   -1.5000    0.0000 C   0  0
   -2.1519   -3.7886    0.0000 N   0  0
   -4.6867   -2.7237    0.0000 C   0  0
   -5.5959   -1.5307    0.0000 C   0  0
   -5.0140   -0.1472    0.0000 O   0  0
   -3.5260    0.0415    0.0000 C   0  0
   -7.0837   -1.7215    0.0000 C   0  0
   -7.9958   -0.5296    0.0000 O   0  0
   -9.4833   -0.7225    0.0000 C   0  0
  1  2  1  0
  2  3  1  0
  3  4  2  0
  4  5  1  0
  5  6  1  0
  6  7  2  0
  6  8  1  0
  8  9  2  0
  9 10  1  0
 10 11  1  0
 11 12  1  0
 12 13  2  0
 13 14  1  0
 14 15  1  0
 15 16  2  0
 16 17  1  0
 17 18  2  0
 18 19  1  0
 19 20  2  0
 20 12  1  0
 20 15  1  0
 11 21  2  0
 21  8  1  0
  5 22  2  0
 22 23  1  0
 23 24  1  0
 24 25  1  0
 23 26  2  0
 26  3  1  0
 26 27  1  0
 27 28  1  0
M  END
> <assay_chembl_id>
CHEMBL2168102

> <assay_description>
Antiproliferative activity against human LNCAP cells after 48 hrs by SRB assay

> <document_journal>
J Med Chem

> <molecule_chembl_id>
CHEMBL2163631

> <standard_value>
2.8

> <IC50_uM>
0.0028

> <Activity>
Yes

> <Canonical_Smiles>
COc1cc(C(=O)c2c[nH]c(-c3c[nH]c4ccccc34)n2)cc(OC)c1OC

$$$$

  SciTegic03142313312D

 29 30  0  0  1  0            999 V2000
    3.9007   -6.7500    0.0000 C   0  0
    5.1989   -7.5014    0.0000 C   0  0
    6.5000   -6.7533    0.0000 N   0  0
    7.7997   -7.5037    0.0000 C   0  0
    7.8007   -9.0045    0.0000 C   0  0
    9.0997   -9.7545    0.0000 O   0  0
    6.4990   -5.2525    0.0000 C   0  0
    5.1993   -4.5021    0.0000 C   0  0
    5.1983   -3.0012    0.0000 C   0  0
    3.8985   -2.2508    0.0000 C   0  0
    2.5988   -1.5004    0.0000 C   0  0
    1.2990   -0.7500    0.0000 C   0  0  1  0  0  0
    1.2990    0.7500    0.0000 C   0  0
    0.0000    1.5000    0.0000 C   0  0
   -1.2990    0.7500    0.0000 C   0  0  2  0  0  0
   -2.6003    1.4977    0.0000 N   0  0
   -2.6030    2.9977    0.0000 C   0  0
   -3.8990    0.7455    0.0000 C   0  0
   -3.8964   -0.7545    0.0000 O   0  0
   -5.2003    1.4932    0.0000 O   0  0
   -6.4990    0.7409    0.0000 C   0  0
   -7.8007    1.4864    0.0000 C   0  0
   -9.0971    0.7319    0.0000 C   0  0
   -9.0919   -0.7681    0.0000 C   0  0
  -10.3884   -1.5226    0.0000 Cl  0  0
   -7.7903   -1.5136    0.0000 C   0  0
   -6.4939   -0.7591    0.0000 C   0  0
   -1.2990   -0.7500    0.0000 C   0  0
    0.0000   -1.5000    0.0000 C   0  0
  1  2  1  0
  2  3  1  0
  3  4  1  0
  4  5  1  0
  5  6  1  0
  3  7  1  0
  7  8  1  0
  8  9  1  0
  9 10  1  0
 10 11  3  0
 12 11  1  6
 12 13  1  0
 13 14  1  0
 14 15  1  0
 15 16  1  1
 16 17  1  0
 16 18  1  0
 18 19  2  0
 18 20  1  0
 20 21  1  0
 21 22  2  0
 22 23  1  0
 23 24  2  0
 24 25  1  0
 24 26  1  0
 26 27  2  0
 27 21  1  0
 15 28  1  0
 28 29  1  0
 29 12  1  0
M  END
> <assay_chembl_id>
CHEMBL2168449

> <assay_description>
Cytotoxicity against human LNCAP cells after 72 hrs by MTT assay

> <document_journal>
J Med Chem

> <molecule_chembl_id>
CHEMBL2164234

> <standard_value>
23600

> <IC50_uM>
23.6

> <Activity>
No

> <RemovedSalts>
HCl

> <Canonical_Smiles>
CCN(CCO)CCCC#C[C@H]1CC[C@H](N(C)C(=O)Oc2ccc(Cl)cc2)CC1.Cl

$$$$

  SciTegic03142313312D

 43 47  0  0  1  0            999 V2000
   -2.1356   -6.8215    0.0000 C   0  0
   -1.1636   -5.6790    0.0000 C   0  0
   -1.6665   -4.2649    0.0000 C   0  0  1  0  0  0
   -3.1451   -4.5174    0.0000 C   0  0
   -4.1030   -3.3632    0.0000 N   0  0  3  0  0  0
   -5.5816   -3.6157    0.0000 C   0  0
   -6.5396   -2.4615    0.0000 C   0  0
   -6.0190   -1.0547    0.0000 C   0  0
   -6.9770    0.0995    0.0000 C   0  0
   -6.4564    1.5063    0.0000 C   0  0
   -7.4173    2.6592    0.0000 O   0  0
   -8.8955    2.4046    0.0000 C   0  0
   -4.9778    1.7588    0.0000 C   0  0
   -4.4540    3.1653    0.0000 O   0  0
   -2.9751    3.4157    0.0000 C   0  0
   -4.0198    0.6045    0.0000 C   0  0
   -4.5404   -0.8022    0.0000 C   0  0
   -3.5824   -1.9564    0.0000 C   0  0  2  0  0  0
   -2.1038   -1.7039    0.0000 C   0  0
   -1.1459   -2.8582    0.0000 C   0  0  2  0  0  0
    0.3330   -2.6024    0.0000 C   0  0
    1.2947   -3.7547    0.0000 C   0  0  2  0  0  0
    1.2938   -5.2548    0.0000 C   0  0
   -0.0058   -6.0039    0.0000 C   0  0
   -0.0067   -7.5039    0.0000 C   0  0
   -1.3085   -8.2508    0.0000 O   0  0
   -2.6060   -7.4981    0.0000 C   0  0
    1.2918   -8.2548    0.0000 C   0  0
    1.2939   -9.7556    0.0000 O   0  0
    2.5935  -10.5046    0.0000 C   0  0
    2.5913   -7.5056    0.0000 C   0  0
    2.5923   -6.0056    0.0000 C   0  0
    3.8918   -5.2565    0.0000 C   0  0
    3.8928   -3.7565    0.0000 C   0  0
    2.5943   -3.0056    0.0000 N   0  0
    2.5984   -1.5048    0.0000 C   0  0
    1.3012   -0.7516    0.0000 O   0  0
    3.8997   -0.7571    0.0000 C   0  0
    3.9039    0.7437    0.0000 C   0  0
    5.2052    1.4897    0.0000 C   0  0
    2.6066    1.4985    0.0000 C   0  0
    2.6108    2.9985    0.0000 O   0  0
    1.3053    0.7525    0.0000 O   0  5
  1  2  1  0
  3  2  1  1
  3  4  1  0
  5  4  1  4
  5  6  1  0
  6  7  1  0
  7  8  1  0
  8  9  2  0
  9 10  1  0
 10 11  1  0
 11 12  1  0
 10 13  2  0
 13 14  1  0
 14 15  1  0
 13 16  1  0
 16 17  2  0
 17  8  1  0
 17 18  1  0
 18  5  1  0
 18 19  1  6
 19 20  1  0
 20  3  1  0
 20 21  1  6
 22 21  1  1
 22 23  1  0
 23 24  2  0
 24 25  1  0
 25 26  1  0
 26 27  1  0
 25 28  2  0
 28 29  1  0
 29 30  1  0
 28 31  1  0
 31 32  2  0
 32 23  1  0
 32 33  1  0
 33 34  1  0
 34 35  1  0
 35 22  1  0
 35 36  1  0
 36 37  2  0
 36 38  1  0
 38 39  2  0
 39 40  1  0
 39 41  1  0
 41 42  2  0
 41 43  1  0
M  CHG  1  43  -1
M  END
> <assay_chembl_id>
CHEMBL2175072

> <assay_description>
Cytotoxicity against human LNCAP cells measured on day 7 by MTT assay

> <document_journal>
J Med Chem

> <molecule_chembl_id>
CHEMBL2171645

> <standard_value>
458

> <IC50_uM>
0.458

> <Activity>
Yes

> <RemovedSalts>
Na+

> <Canonical_Smiles>
CC[C@H]1CN2CCc3cc(OC)c(OC)cc3[C@@H]2C[C@@H]1C[C@@H]1c2cc(OC)c(OC)cc2CCN1C(=O)/C=C(/C)C(=O)[O-].[Na+]

$$$$

  SciTegic03142313312D

 43 47  0  0  1  0            999 V2000
   -2.1356   -6.8215    0.0000 C   0  0
   -1.1636   -5.6790    0.0000 C   0  0
   -1.6665   -4.2649    0.0000 C   0  0  1  0  0  0
   -3.1451   -4.5174    0.0000 C   0  0
   -4.1030   -3.3632    0.0000 N   0  0  3  0  0  0
   -5.5816   -3.6157    0.0000 C   0  0
   -6.5396   -2.4615    0.0000 C   0  0
   -6.0190   -1.0547    0.0000 C   0  0
   -6.9770    0.0995    0.0000 C   0  0
   -6.4564    1.5063    0.0000 C   0  0
   -7.4173    2.6592    0.0000 O   0  0
   -8.8955    2.4046    0.0000 C   0  0
   -4.9778    1.7588    0.0000 C   0  0
   -4.4540    3.1653    0.0000 O   0  0
   -2.9751    3.4157    0.0000 C   0  0
   -4.0198    0.6045    0.0000 C   0  0
   -4.5404   -0.8022    0.0000 C   0  0
   -3.5824   -1.9564    0.0000 C   0  0  2  0  0  0
   -2.1038   -1.7039    0.0000 C   0  0
   -1.1459   -2.8582    0.0000 C   0  0  2  0  0  0
    0.3330   -2.6024    0.0000 C   0  0
    1.2947   -3.7547    0.0000 C   0  0  2  0  0  0
    1.2938   -5.2548    0.0000 C   0  0
   -0.0058   -6.0039    0.0000 C   0  0
   -0.0067   -7.5039    0.0000 C   0  0
   -1.3085   -8.2508    0.0000 O   0  0
   -2.6060   -7.4981    0.0000 C   0  0
    1.2918   -8.2548    0.0000 C   0  0
    1.2939   -9.7556    0.0000 O   0  0
    2.5935  -10.5046    0.0000 C   0  0
    2.5913   -7.5056    0.0000 C   0  0
    2.5923   -6.0056    0.0000 C   0  0
    3.8918   -5.2565    0.0000 C   0  0
    3.8928   -3.7565    0.0000 C   0  0
    2.5943   -3.0056    0.0000 N   0  0
    2.5984   -1.5048    0.0000 C   0  0
    1.3012   -0.7516    0.0000 O   0  0
    3.8997   -0.7571    0.0000 C   0  0
    3.9039    0.7437    0.0000 C   0  0
    5.2052    1.4897    0.0000 C   0  0
    2.6066    1.4985    0.0000 C   0  0
    2.6108    2.9985    0.0000 O   0  0
    1.3053    0.7525    0.0000 O   0  0
  1  2  1  0
  3  2  1  1
  3  4  1  0
  5  4  1  4
  5  6  1  0
  6  7  1  0
  7  8  1  0
  8  9  2  0
  9 10  1  0
 10 11  1  0
 11 12  1  0
 10 13  2  0
 13 14  1  0
 14 15  1  0
 13 16  1  0
 16 17  2  0
 17  8  1  0
 17 18  1  0
 18  5  1  0
 18 19  1  6
 19 20  1  0
 20  3  1  0
 20 21  1  6
 22 21  1  1
 22 23  1  0
 23 24  2  0
 24 25  1  0
 25 26  1  0
 26 27  1  0
 25 28  2  0
 28 29  1  0
 29 30  1  0
 28 31  1  0
 31 32  2  0
 32 23  1  0
 32 33  1  0
 33 34  1  0
 34 35  1  0
 35 22  1  0
 35 36  1  0
 36 37  2  0
 36 38  1  0
 38 39  2  0
 39 40  1  0
 39 41  1  0
 41 42  2  0
 41 43  1  0
M  END
> <assay_chembl_id>
CHEMBL2175072

> <assay_description>
Cytotoxicity against human LNCAP cells measured on day 7 by MTT assay

> <document_journal>
J Med Chem

> <molecule_chembl_id>
CHEMBL2171642

> <standard_value>
368

> <IC50_uM>
0.368

> <Activity>
Yes

> <Canonical_Smiles>
CC[C@H]1CN2CCc3cc(OC)c(OC)cc3[C@@H]2C[C@@H]1C[C@@H]1c2cc(OC)c(OC)cc2CCN1C(=O)/C=C(/C)C(=O)O

$$$$

  SciTegic03142313312D

 38 42  0  0  1  0            999 V2000
    3.8983   -0.7459    0.0000 C   0  0
    2.6003   -1.4977    0.0000 C   0  0
    1.2990   -0.7500    0.0000 C   0  0  1  0  0  0
    1.2990    0.7500    0.0000 C   0  0
    0.0000    1.5000    0.0000 N   0  0  3  0  0  0
    0.0000    3.0000    0.0000 C   0  0
   -1.2991    3.7500    0.0000 C   0  0
   -2.5981    3.0000    0.0000 C   0  0
   -3.8971    3.7500    0.0000 C   0  0
   -5.1962    3.0000    0.0000 C   0  0
   -6.4944    3.7530    0.0000 O   0  0
   -6.4923    5.2530    0.0000 C   0  0
   -5.1962    1.5000    0.0000 C   0  0
   -6.4944    0.7469    0.0000 O   0  0
   -6.4922   -0.7531    0.0000 C   0  0
   -3.8971    0.7500    0.0000 C   0  0
   -2.5981    1.5000    0.0000 C   0  0
   -1.2990    0.7500    0.0000 C   0  0  2  0  0  0
   -1.2990   -0.7500    0.0000 C   0  0
    0.0000   -1.5000    0.0000 C   0  0  2  0  0  0
    0.5104   -2.9114    0.0000 C   0  0
   -0.4559   -4.0597    0.0000 C   0  0  2  0  0  0
    0.0522   -5.4711    0.0000 C   0  0
    1.5285   -5.7366    0.0000 C   0  0
    2.0366   -7.1480    0.0000 C   0  0
    3.5143   -7.4106    0.0000 O   0  0
    4.4808   -6.2635    0.0000 C   0  0
    1.0685   -8.2937    0.0000 C   0  0
    1.5740   -9.7068    0.0000 O   0  0
    0.6042  -10.8512    0.0000 C   0  0
   -0.4078   -8.0281    0.0000 C   0  0
   -0.9160   -6.6168    0.0000 C   0  0
   -2.3923   -6.3512    0.0000 C   0  0
   -2.9004   -4.9399    0.0000 C   0  0
   -1.9323   -3.7942    0.0000 N   0  0
   -2.4437   -2.3832    0.0000 C   0  0
   -3.9204   -2.1197    0.0000 S   0  0
   -1.4776   -1.2357    0.0000 S   0  5
  1  2  1  0
  3  2  1  6
  3  4  1  0
  5  4  1  4
  5  6  1  0
  6  7  1  0
  7  8  1  0
  8  9  2  0
  9 10  1  0
 10 11  1  0
 11 12  1  0
 10 13  2  0
 13 14  1  0
 14 15  1  0
 13 16  1  0
 16 17  2  0
 17  8  1  0
 17 18  1  0
 18  5  1  0
 18 19  1  1
 19 20  1  0
 20  3  1  0
 20 21  1  1
 22 21  1  6
 22 23  1  0
 23 24  2  0
 24 25  1  0
 25 26  1  0
 26 27  1  0
 25 28  2  0
 28 29  1  0
 29 30  1  0
 28 31  1  0
 31 32  2  0
 32 23  1  0
 32 33  1  0
 33 34  1  0
 34 35  1  0
 35 22  1  0
 35 36  1  0
 36 37  2  0
 36 38  1  0
M  CHG  1  38  -1
M  END
> <assay_chembl_id>
CHEMBL2175072

> <assay_description>
Cytotoxicity against human LNCAP cells measured on day 7 by MTT assay

> <document_journal>
J Med Chem

> <molecule_chembl_id>
CHEMBL2171637

> <standard_value>
79

> <IC50_uM>
0.079

> <Activity>
Yes

> <RemovedSalts>
Na+

> <Canonical_Smiles>
CC[C@H]1CN2CCc3cc(OC)c(OC)cc3[C@@H]2C[C@@H]1C[C@@H]1c2cc(OC)c(OC)cc2CCN1C(=S)[S-].[Na+]

$$$$

  SciTegic03142313312D

 35 39  0  0  1  0            999 V2000
    3.8983   -0.7459    0.0000 C   0  0
    2.6003   -1.4977    0.0000 C   0  0
    1.2990   -0.7500    0.0000 C   0  0  1  0  0  0
    1.2990    0.7500    0.0000 C   0  0
    0.0000    1.5000    0.0000 N   0  0  3  0  0  0
    0.0000    3.0000    0.0000 C   0  0
   -1.2991    3.7500    0.0000 C   0  0
   -2.5981    3.0000    0.0000 C   0  0
   -3.8971    3.7500    0.0000 C   0  0
   -5.1962    3.0000    0.0000 C   0  0
   -6.4944    3.7530    0.0000 O   0  0
   -6.4923    5.2530    0.0000 C   0  0
   -5.1962    1.5000    0.0000 C   0  0
   -6.4944    0.7469    0.0000 O   0  0
   -6.4922   -0.7531    0.0000 C   0  0
   -3.8971    0.7500    0.0000 C   0  0
   -2.5981    1.5000    0.0000 C   0  0
   -1.2990    0.7500    0.0000 C   0  0  2  0  0  0
   -1.2990   -0.7500    0.0000 C   0  0
    0.0000   -1.5000    0.0000 C   0  0  2  0  0  0
   -0.0031   -3.0008    0.0000 C   0  0
   -1.3039   -3.7494    0.0000 C   0  0  1  0  0  0
   -2.6004   -2.9949    0.0000 N   0  0
   -3.9021   -3.7405    0.0000 C   0  0
   -3.9072   -5.2404    0.0000 C   0  0
   -2.6108   -5.9949    0.0000 C   0  0
   -2.6160   -7.4949    0.0000 C   0  0
   -1.3195   -8.2494    0.0000 C   0  0
   -1.3278   -9.7502    0.0000 O   0  0
   -2.6305  -10.4939    0.0000 C   0  0
   -0.0179   -7.5039    0.0000 C   0  0
    1.2808   -8.2561    0.0000 O   0  0
    2.5814   -7.5087    0.0000 C   0  0
   -0.0127   -6.0039    0.0000 C   0  0
   -1.3092   -5.2494    0.0000 C   0  0
  1  2  1  0
  3  2  1  6
  3  4  1  0
  5  4  1  4
  5  6  1  0
  6  7  1  0
  7  8  1  0
  8  9  2  0
  9 10  1  0
 10 11  1  0
 11 12  1  0
 10 13  2  0
 13 14  1  0
 14 15  1  0
 13 16  1  0
 16 17  2  0
 17  8  1  0
 17 18  1  0
 18  5  1  0
 18 19  1  1
 19 20  1  0
 20  3  1  0
 20 21  1  1
 22 21  1  6
 22 23  1  0
 23 24  1  0
 24 25  1  0
 25 26  1  0
 26 27  2  0
 27 28  1  0
 28 29  1  0
 29 30  1  0
 28 31  2  0
 31 32  1  0
 32 33  1  0
 31 34  1  0
 34 35  2  0
 35 26  1  0
 35 22  1  0
M  END
> <assay_chembl_id>
CHEMBL2175072

> <assay_description>
Cytotoxicity against human LNCAP cells measured on day 7 by MTT assay

> <document_journal>
J Med Chem

> <molecule_chembl_id>
CHEMBL493439

> <standard_value>
31.58

> <IC50_uM>
0.03158

> <Activity>
Yes

> <RemovedSalts>
HCl
HCl

> <Canonical_Smiles>
CC[C@H]1CN2CCc3cc(OC)c(OC)cc3[C@@H]2C[C@@H]1C[C@H]1NCCc2cc(OC)c(OC)cc21.Cl.Cl

$$$$

  SciTegic03142313312D

 34 38  0  0  1  0            999 V2000
   -6.1685   -8.2263    0.0000 C   0  0
   -5.7077   -9.6537    0.0000 C   0  0  2  0  0  0
   -6.7138  -10.7662    0.0000 O   0  0
   -4.2401   -9.9681    0.0000 C   0  0
   -3.7793  -11.3955    0.0000 O   0  0
   -3.2334   -8.8550    0.0000 N   0  0
   -1.7662   -9.1671    0.0000 C   0  0
   -0.7624   -8.0525    0.0000 C   0  0
   -1.2256   -6.6258    0.0000 C   0  0
   -0.2234   -5.5086    0.0000 C   0  0
   -0.6890   -4.0818    0.0000 C   0  0
    0.3114   -2.9665    0.0000 N   0  0
    1.8032   -3.1233    0.0000 C   0  0
    2.5551   -4.4192    0.0000 S   0  0
    4.0559   -4.4171    0.0000 C   0  0
    4.8015   -3.1154    0.0000 C   0  0
    6.3015   -3.1102    0.0000 C   0  0
    7.0560   -4.4066    0.0000 C   0  0
    6.3105   -5.7082    0.0000 C   0  0
    4.8105   -5.7135    0.0000 C   0  0
    4.0651   -7.0151    0.0000 Br  0  0
    8.5214   -4.0901    0.0000 O   0  0
    8.6730   -2.5977    0.0000 C   0  0
    7.3005   -1.9924    0.0000 O   0  0
    2.4133   -1.7530    0.0000 N   0  0
    1.2990   -0.7500    0.0000 C   0  0
    1.2990    0.7500    0.0000 C   0  0
    2.5981    1.5000    0.0000 N   0  0
    0.0000    1.5000    0.0000 N   0  0
   -1.2990    0.7500    0.0000 C   0  0
   -1.2990   -0.7500    0.0000 N   0  0
    0.0000   -1.5000    0.0000 C   0  0
   -2.6928   -6.3138    0.0000 C   0  0
   -3.6967   -7.4283    0.0000 C   0  0
  2  1  1  1
  2  3  1  0
  2  4  1  0
  4  5  2  0
  4  6  1  0
  6  7  1  0
  7  8  1  0
  8  9  1  0
  9 10  1  0
 10 11  1  0
 11 12  1  0
 12 13  1  0
 13 14  1  0
 14 15  1  0
 15 16  2  0
 16 17  1  0
 17 18  2  0
 18 19  1  0
 19 20  2  0
 20 15  1  0
 20 21  1  0
 18 22  1  0
 22 23  1  0
 23 24  1  0
 24 17  1  0
 13 25  2  0
 25 26  1  0
 26 27  2  0
 27 28  1  0
 27 29  1  0
 29 30  2  0
 30 31  1  0
 31 32  2  0
 32 26  1  0
 32 12  1  0
  9 33  1  0
 33 34  1  0
 34  6  1  0
M  END
> <assay_chembl_id>
CHEMBL2173572

> <assay_description>
Cytotoxicity against human LNCAP cells assessed as inhibition of tumor growth incubated for 72 hrs by luminometry

> <document_journal>
J Med Chem

> <molecule_chembl_id>
CHEMBL2170470

> <standard_value>
510

> <IC50_uM>
0.51

> <Activity>
Yes

> <Canonical_Smiles>
C[C@H](O)C(=O)N1CCC(CCn2c(Sc3cc4c(cc3Br)OCO4)nc3c(N)ncnc32)CC1

$$$$

  SciTegic03142313312D

 32 35  0  0  1  0            999 V2000
    1.2879   -5.2349    0.0000 C   0  0
    2.5834   -5.9910    0.0000 C   0  0
    2.5758   -7.4910    0.0000 C   0  0
    3.8871   -5.2475    0.0000 N   0  0
    5.1833   -6.0040    0.0000 C   0  0
    6.4870   -5.2605    0.0000 C   0  0  1  0  0  0
    6.4916   -3.7596    0.0000 C   0  0
    7.7931   -3.0140    0.0000 O   0  0
    5.1945   -3.0045    0.0000 N   0  0
    5.1969   -1.5045    0.0000 C   0  0
    3.8991   -0.7525    0.0000 C   0  0
    2.5987   -1.5004    0.0000 N   0  0
    1.2990   -0.7500    0.0000 C   0  0
    1.2990    0.7500    0.0000 N   0  0
    0.0000    1.5000    0.0000 C   0  0
   -1.2990    0.7500    0.0000 N   0  0
   -1.2990   -0.7500    0.0000 C   0  0
    0.0000   -1.5000    0.0000 C   0  0
   -0.3114   -2.9665    0.0000 C   0  0  2  0  0  0
    0.6924   -4.0811    0.0000 C   0  0
   -1.8032   -3.1233    0.0000 C   0  0
   -2.4133   -1.7530    0.0000 C   0  0  1  0  0  0
   -3.8805   -1.4410    0.0000 O   0  0
    2.5965   -3.0004    0.0000 C   0  0
    3.8943   -3.7525    0.0000 C   0  0
    7.7841   -6.0156    0.0000 C   0  0
    9.0880   -5.2740    0.0000 C   0  0
   10.3822   -6.0322    0.0000 C   0  0
   10.3726   -7.5322    0.0000 C   0  0
   11.6668   -8.2905    0.0000 Cl  0  0
    9.0688   -8.2739    0.0000 C   0  0
    7.7746   -7.5156    0.0000 C   0  0
  1  2  1  0
  2  3  1  0
  2  4  1  0
  4  5  1  0
  6  5  1  1
  6  7  1  0
  7  8  2  0
  7  9  1  0
  9 10  1  0
 10 11  1  0
 11 12  1  0
 12 13  1  0
 13 14  2  0
 14 15  1  0
 15 16  2  0
 16 17  1  0
 17 18  2  0
 18 13  1  0
 18 19  1  0
 19 20  1  6
 19 21  1  0
 21 22  1  0
 22 17  1  0
 22 23  1  1
 12 24  1  0
 24 25  1  0
 25  9  1  0
  6 26  1  0
 26 27  2  0
 27 28  1  0
 28 29  2  0
 29 30  1  0
 29 31  1  0
 31 32  2  0
 32 26  1  0
M  END
> <assay_chembl_id>
CHEMBL2187639

> <assay_description>
Cytotoxicity against human LNCAP cells assessed as reduction of resazurin to resorufin after 72 hrs

> <document_journal>
J Med Chem

> <molecule_chembl_id>
CHEMBL2177390

> <standard_value>
95

> <IC50_uM>
0.095

> <Activity>
Yes

> <Canonical_Smiles>
CC(C)NC[C@@H](C(=O)N1CCN(c2ncnc3c2[C@H](C)C[C@H]3O)CC1)c1ccc(Cl)cc1

$$$$

  SciTegic03142313312D

112114  0  0  1  0            999 V2000
   25.9833   16.3178    0.0000 C   0  0
   24.4851   16.3912    0.0000 C   0  0
   23.6712   15.1302    0.0000 C   0  0  3  0  0  0
   24.3563   13.7958    0.0000 C   0  0
   22.1722   15.2036    0.0000 C   0  0
   21.3583   13.9427    0.0000 C   0  0  1  0  0  0
   22.0434   12.6083    0.0000 C   0  0
   19.8593   14.0161    0.0000 C   0  0  1  0  0  0
   19.1741   15.3505    0.0000 O   0  0
   19.0454   12.7551    0.0000 C   0  0  1  0  0  0
   19.7305   11.4207    0.0000 C   0  0
   17.5463   12.8285    0.0000 C   0  0
   17.0896   13.7181    0.0000 O   0  0
   16.7324   11.5676    0.0000 N   0  0
   15.2334   11.6410    0.0000 C   0  0  1  0  0  0
   14.5506   12.9775    0.0000 C   0  0
   15.3659   14.2376    0.0000 C   0  0
   16.3646   14.1866    0.0000 N   0  0
   14.6836   15.5734    0.0000 O   0  0
   14.4195   10.3800    0.0000 C   0  0
   15.1046    9.0456    0.0000 O   0  0
   12.9205   10.4534    0.0000 N   0  0
   12.1066    9.1925    0.0000 C   0  0  1  0  0  0
   12.7948    7.8587    0.0000 C   0  0
   14.2939    7.7870    0.0000 C   0  0
   14.9822    6.4533    0.0000 C   0  0
   16.4813    6.3815    0.0000 N   0  0
   17.1695    5.0478    0.0000 C   0  0
   18.6678    4.9761    0.0000 N   0  0
   16.3587    3.7859    0.0000 N   0  0
   10.6075    9.2659    0.0000 C   0  0  1  0  0  0
    9.9224   10.6003    0.0000 O   0  0
    9.7936    8.0049    0.0000 C   0  0  1  0  0  0
   10.4788    6.6705    0.0000 O   0  0
    8.2946    8.0783    0.0000 C   0  0
    7.8379    8.9679    0.0000 O   0  0
    7.4807    6.8174    0.0000 N   0  0
    5.9817    6.8908    0.0000 C   0  0  3  0  0  0
    5.1678    5.6298    0.0000 C   0  0
    5.8529    4.2954    0.0000 O   0  0
    3.6688    5.7032    0.0000 N   0  0
    2.8492    4.4334    0.0000 C   0  0  1  0  0  0
    1.4847    5.0565    0.0000 C   0  0
    1.9073    6.4958    0.0000 O   0  0
    0.0000    5.2700    0.0000 N   0  0
   -1.4848    5.0565    0.0000 C   0  0  2  0  0  0
   -1.9086    6.5073    0.0000 C   0  0  2  0  0  0
   -0.8716    7.5911    0.0000 C   0  0
   -3.3655    6.8638    0.0000 O   0  0
   -2.8492    4.4334    0.0000 C   0  0
   -3.6602    5.6953    0.0000 O   0  0
   -3.9828    3.4511    0.0000 N   0  0
   -4.7938    2.1892    0.0000 C   0  0  2  0  0  0
   -6.1673    2.8197    0.0000 C   0  0
   -6.3080    4.3139    0.0000 C   0  0
   -7.6720    4.9401    0.0000 C   0  0
   -7.8127    6.4343    0.0000 N   0  0
   -9.1766    7.0604    0.0000 C   0  0
   -9.3172    8.5538    0.0000 N   0  0
  -10.3999    6.1924    0.0000 N   0  0
   -5.2164    0.7500    0.0000 C   0  0
   -6.7011    0.9634    0.0000 O   0  0
   -5.2164   -0.7500    0.0000 N   0  0
   -4.7938   -2.1893    0.0000 C   0  0  1  0  0  0
   -6.1698   -2.8144    0.0000 C   0  0
   -7.3911   -1.9422    0.0000 C   0  0
   -8.7568   -2.5627    0.0000 C   0  0
   -7.2461   -0.4493    0.0000 C   0  0
   -3.9828   -3.4511    0.0000 C   0  0
   -5.1164   -4.4334    0.0000 O   0  0
   -2.8492   -4.4334    0.0000 N   0  0
   -3.6601   -5.6953    0.0000 C   0  0
   -1.4847   -5.0565    0.0000 C   0  0  1  0  0  0
   -1.9133   -6.5058    0.0000 C   0  0
   -3.3723   -6.8577    0.0000 C   0  0
   -3.7980   -8.2969    0.0000 C   0  0
   -2.7647   -9.3842    0.0000 N   0  0
   -5.2562   -8.6486    0.0000 O   0  0
    0.0000   -5.2700    0.0000 C   0  0
    0.0000   -6.7700    0.0000 O   0  0
    1.4847   -5.0565    0.0000 N   0  0
    2.8492   -4.4334    0.0000 C   0  0  2  0  0  0
    3.6638   -5.7064    0.0000 C   0  0  2  0  0  0
    5.1629   -5.6344    0.0000 O   0  0
    5.8506   -4.3013    0.0000 C   0  0
    2.9743   -7.0395    0.0000 C   0  0
    3.7810   -8.3042    0.0000 C   0  0
    3.0892   -9.6351    0.0000 C   0  0
    1.5906   -9.7015    0.0000 C   0  0
    0.8988  -11.0324    0.0000 O   0  0
    0.7839   -8.4369    0.0000 C   0  0
    1.4757   -7.1059    0.0000 C   0  0
    3.9828   -3.4511    0.0000 C   0  0
    5.1164   -4.4334    0.0000 O   0  0
    4.7938   -2.1892    0.0000 N   0  0
    5.8372   -3.2773    0.0000 C   0  0
    7.2949   -2.9236    0.0000 C   0  0
    7.7175   -1.4844    0.0000 C   0  0
    6.6824   -0.3988    0.0000 C   0  0
    5.2164   -0.7500    0.0000 C   0  0  1  0  0  0
    5.2164    0.7500    0.0000 C   0  0
    6.7011    0.9635    0.0000 O   0  0
    4.7938    2.1892    0.0000 O   0  0
    3.9828    3.4511    0.0000 C   0  0  2  0  0  0
    5.1164    4.4334    0.0000 C   0  0
    5.2989    8.2273    0.0000 C   0  0  3  0  0  0
    3.8009    8.3038    0.0000 C   0  0
    6.1142    9.4874    0.0000 C   0  0  3  0  0  0
    7.1129    9.4364    0.0000 C   0  0
    5.4315   10.8239    0.0000 C   0  0
    3.9334   10.9004    0.0000 N   0  0
    6.2463   12.0833    0.0000 O   0  0
  1  2  1  0
  2  3  1  0
  3  4  1  4
  3  5  1  0
  5  6  1  0
  6  7  1  1
  6  8  1  0
  8  9  1  6
  8 10  1  0
 10 11  1  1
 10 12  1  0
 12 13  2  0
 12 14  1  0
 15 14  1  6
 15 16  1  0
 16 17  1  0
 17 18  1  0
 17 19  2  0
 15 20  1  0
 20 21  2  0
 20 22  1  0
 23 22  1  1
 23 24  1  0
 24 25  1  0
 25 26  1  0
 26 27  1  0
 27 28  1  0
 28 29  2  0
 28 30  1  0
 23 31  1  0
 31 32  1  6
 31 33  1  0
 33 34  1  1
 33 35  1  0
 35 36  2  0
 35 37  1  0
 38 37  1  4
 38 39  1  0
 39 40  2  0
 39 41  1  0
 42 41  1  6
 42 43  1  0
 43 44  2  0
 43 45  1  0
 46 45  1  1
 46 47  1  0
 47 48  1  1
 47 49  1  0
 46 50  1  0
 50 51  2  0
 50 52  1  0
 52 53  1  0
 53 54  1  1
 54 55  1  0
 55 56  1  0
 56 57  1  0
 57 58  1  0
 58 59  2  0
 58 60  1  0
 53 61  1  0
 61 62  2  0
 61 63  1  0
 63 64  1  0
 64 65  1  6
 65 66  1  0
 66 67  1  0
 66 68  1  0
 64 69  1  0
 69 70  2  0
 69 71  1  0
 71 72  1  0
 71 73  1  0
 73 74  1  6
 74 75  1  0
 75 76  1  0
 76 77  1  0
 76 78  2  0
 73 79  1  0
 79 80  2  0
 79 81  1  0
 82 81  1  1
 82 83  1  0
 83 84  1  6
 84 85  1  0
 83 86  1  0
 86 87  2  0
 87 88  1  0
 88 89  2  0
 89 90  1  0
 89 91  1  0
 91 92  2  0
 92 86  1  0
 82 93  1  0
 93 94  2  0
 93 95  1  0
 95 96  1  0
 96 97  1  0
 97 98  1  0
 98 99  1  0
100 99  1  6
100 95  1  0
100101  1  0
101102  2  0
101103  1  0
103104  1  0
104 42  1  0
104105  1  1
 38106  1  0
106107  1  4
106108  1  0
108109  1  4
108110  1  0
110111  1  0
110112  2  0
M  END
> <assay_chembl_id>
CHEMBL2216649

> <assay_description>
Cytotoxicity against human LNCAP cells after 72 hrs by alamar blue assay

> <document_journal>
J Nat Prod

> <molecule_chembl_id>
CHEMBL2208227

> <standard_value>
110

> <IC50_uM>
0.11

> <Activity>
Yes

> <Canonical_Smiles>
CCC(C)C[C@@H](C)[C@@H](O)[C@@H](C)C(=O)N[C@@H](CC(N)=O)C(=O)N[C@@H](CCCNC(=N)N)[C@@H](O)[C@@H](O)C(=O)NC(C(=O)N[C@H]1C(=O)N[C@H]([C@H](C)O)C(=O)N[C@H](CCCNC(=N)N)C(=O)N[C@@H](CC(C)C)C(=O)N(C)[C@@H](CC
C(N)=O)C(=O)N[C@H]([C@H](OC)c2ccc(O)cc2)C(=O)N2CCCC[C@H]2C(=O)O[C@@H]1C)C(C)C(C)C(N)=O

$$$$

  SciTegic03142313312D

111113  0  0  1  0            999 V2000
    5.8505    4.3013    0.0000 C   0  0
    5.1629    5.6344    0.0000 O   0  0
    3.6638    5.7064    0.0000 C   0  0  2  0  0  0
    2.9743    7.0395    0.0000 C   0  0
    3.7810    8.3042    0.0000 C   0  0
    3.0892    9.6351    0.0000 C   0  0
    1.5907    9.7015    0.0000 C   0  0
    0.8989   11.0324    0.0000 O   0  0
    0.7839    8.4369    0.0000 C   0  0
    1.4757    7.1059    0.0000 C   0  0
    2.8492    4.4334    0.0000 C   0  0  1  0  0  0
    1.4847    5.0565    0.0000 N   0  0
    0.0000    5.2700    0.0000 C   0  0
    0.0000    6.7700    0.0000 O   0  0
   -1.4848    5.0565    0.0000 C   0  0  2  0  0  0
   -1.9077    6.5075    0.0000 C   0  0
   -0.8706    7.5923    0.0000 C   0  0
   -1.2906    9.0332    0.0000 C   0  0
   -0.2541   10.1174    0.0000 O   0  0
   -2.7478    9.3892    0.0000 O   0  0
   -2.8492    4.4334    0.0000 N   0  0
   -3.6602    5.6953    0.0000 C   0  0
   -3.9828    3.4511    0.0000 C   0  0
   -5.1165    4.4334    0.0000 O   0  0
   -4.7938    2.1892    0.0000 C   0  0  2  0  0  0
   -6.1673    2.8197    0.0000 C   0  0
   -6.3080    4.3139    0.0000 C   0  0
   -7.6712    4.9397    0.0000 C   0  0
   -5.0847    5.1820    0.0000 C   0  0
   -5.2164    0.7500    0.0000 N   0  0
   -5.2164   -0.7500    0.0000 C   0  0
   -6.7011   -0.9635    0.0000 O   0  0
   -4.7938   -2.1893    0.0000 C   0  0  1  0  0  0
   -6.1698   -2.8144    0.0000 C   0  0
   -7.3911   -1.9422    0.0000 C   0  0
   -8.7576   -2.5630    0.0000 C   0  0
   -9.9789   -1.6908    0.0000 N   0  0
  -11.3454   -2.3116    0.0000 C   0  0
  -12.5661   -1.4399    0.0000 N   0  0
  -11.4904   -3.8046    0.0000 N   0  0
   -3.9828   -3.4511    0.0000 N   0  0
   -2.8492   -4.4334    0.0000 C   0  0
   -3.6601   -5.6953    0.0000 O   0  0
   -1.4847   -5.0565    0.0000 C   0  0  1  0  0  0
   -1.9085   -6.5073    0.0000 C   0  0  2  0  0  0
   -0.8715   -7.5911    0.0000 C   0  0
   -3.3655   -6.8639    0.0000 O   0  0
    0.0000   -5.2700    0.0000 N   0  0
    1.4847   -5.0565    0.0000 C   0  0
    1.9073   -6.4958    0.0000 O   0  0
    2.8492   -4.4334    0.0000 C   0  0  2  0  0  0
    3.6638   -5.7064    0.0000 N   0  0
    2.9743   -7.0395    0.0000 C   0  0
    1.4759   -7.1084    0.0000 O   0  0
    3.7833   -8.3037    0.0000 C   0  0  3  0  0  0
    3.0938   -9.6367    0.0000 N   0  0
    3.9027  -10.9009    0.0000 C   0  0
    4.9016  -10.8550    0.0000 O   0  0
    3.2132  -12.2340    0.0000 C   0  0  2  0  0  0
    1.7148  -12.3029    0.0000 O   0  0
    4.0221  -13.4981    0.0000 C   0  0  2  0  0  0
    5.5205  -13.4292    0.0000 O   0  0
    3.3326  -14.8312    0.0000 C   0  0  2  0  0  0
    1.8335  -14.9032    0.0000 C   0  0
    1.1455  -16.2371    0.0000 C   0  0
   -0.3536  -16.3091    0.0000 C   0  0
   -1.0416  -17.6429    0.0000 N   0  0
   -2.5407  -17.7150    0.0000 C   0  0
   -3.2283  -19.0481    0.0000 N   0  0
   -3.3518  -16.4532    0.0000 N   0  0
    4.1416  -16.0954    0.0000 N   0  0
    3.4521  -17.4284    0.0000 C   0  0
    1.9537  -17.4973    0.0000 O   0  0
    4.2610  -18.6926    0.0000 C   0  0  2  0  0  0
    5.7604  -18.6267    0.0000 C   0  0
    6.5679  -19.8918    0.0000 C   0  0
    6.1067  -20.7791    0.0000 N   0  0
    8.0665  -19.8260    0.0000 O   0  0
    3.5715  -20.0257    0.0000 N   0  0
    4.3804  -21.2898    0.0000 C   0  0
    5.3794  -21.2439    0.0000 O   0  0
    3.6909  -22.6229    0.0000 C   0  0  2  0  0  0
    2.1925  -22.6918    0.0000 C   0  0
    4.4999  -23.8871    0.0000 C   0  0  2  0  0  0
    5.9983  -23.8182    0.0000 O   0  0
    3.8104  -25.2201    0.0000 C   0  0  2  0  0  0
    2.3120  -25.2891    0.0000 C   0  0
    4.6193  -26.4843    0.0000 C   0  0
    3.9298  -27.8174    0.0000 C   0  0
    4.7383  -29.0809    0.0000 C   0  0
    2.4314  -27.8863    0.0000 C   0  0
    5.2826   -8.2378    0.0000 C   0  0  3  0  0  0
    5.9745   -6.9069    0.0000 C   0  0
    6.0902   -9.5029    0.0000 C   0  0  3  0  0  0
    5.6289  -10.3901    0.0000 C   0  0
    7.5895   -9.4370    0.0000 C   0  0
    8.2814   -8.1061    0.0000 N   0  0
    8.3966  -10.7014    0.0000 O   0  0
    3.9828   -3.4511    0.0000 C   0  0  1  0  0  0
    5.1164   -4.4334    0.0000 C   0  0
    4.7938   -2.1892    0.0000 O   0  0
    5.2164   -0.7500    0.0000 C   0  0
    6.7011   -0.9635    0.0000 O   0  0
    5.2164    0.7500    0.0000 C   0  0  2  0  0  0
    6.6824    0.3988    0.0000 C   0  0
    7.7175    1.4844    0.0000 C   0  0
    7.2949    2.9237    0.0000 C   0  0
    5.8372    3.2773    0.0000 C   0  0
    4.7938    2.1892    0.0000 N   0  0
    3.9828    3.4511    0.0000 C   0  0
    5.1164    4.4334    0.0000 O   0  0
  1  2  1  0
  3  2  1  1
  3  4  1  0
  4  5  2  0
  5  6  1  0
  6  7  2  0
  7  8  1  0
  7  9  1  0
  9 10  2  0
 10  4  1  0
  3 11  1  0
 11 12  1  6
 12 13  1  0
 13 14  2  0
 13 15  1  0
 15 16  1  1
 16 17  1  0
 17 18  1  0
 18 19  2  0
 18 20  1  0
 15 21  1  0
 21 22  1  0
 21 23  1  0
 23 24  2  0
 23 25  1  0
 25 26  1  1
 26 27  1  0
 27 28  1  0
 27 29  1  0
 25 30  1  0
 30 31  1  0
 31 32  2  0
 31 33  1  0
 33 34  1  6
 34 35  1  0
 35 36  1  0
 36 37  1  0
 37 38  1  0
 38 39  2  0
 38 40  1  0
 33 41  1  0
 41 42  1  0
 42 43  2  0
 42 44  1  0
 44 45  1  0
 45 46  1  6
 45 47  1  0
 44 48  1  6
 48 49  1  0
 49 50  2  0
 49 51  1  0
 51 52  1  1
 52 53  1  0
 53 54  2  0
 53 55  1  0
 55 56  1  4
 56 57  1  0
 57 58  2  0
 57 59  1  0
 59 60  1  1
 59 61  1  0
 61 62  1  6
 61 63  1  0
 63 64  1  1
 64 65  1  0
 65 66  1  0
 66 67  1  0
 67 68  1  0
 68 69  2  0
 68 70  1  0
 63 71  1  0
 71 72  1  0
 72 73  2  0
 72 74  1  0
 74 75  1  6
 75 76  1  0
 76 77  1  0
 76 78  2  0
 74 79  1  0
 79 80  1  0
 80 81  2  0
 80 82  1  0
 82 83  1  1
 82 84  1  0
 84 85  1  6
 84 86  1  0
 86 87  1  1
 86 88  1  0
 88 89  1  0
 89 90  1  0
 89 91  1  0
 55 92  1  0
 92 93  1  4
 92 94  1  0
 94 95  1  4
 94 96  1  0
 96 97  1  0
 96 98  2  0
 51 99  1  0
 99100  1  6
 99101  1  0
101102  1  0
102103  2  0
102104  1  0
104105  1  1
105106  1  0
106107  1  0
107108  1  0
108109  1  0
109104  1  0
109110  1  0
110 11  1  0
110111  2  0
M  END
> <assay_chembl_id>
CHEMBL2216649

> <assay_description>
Cytotoxicity against human LNCAP cells after 72 hrs by alamar blue assay

> <document_journal>
J Nat Prod

> <molecule_chembl_id>
CHEMBL2208228

> <standard_value>
190

> <IC50_uM>
0.19

> <Activity>
Yes

> <Canonical_Smiles>
CO[C@H](c1ccc(O)cc1)[C@H]1NC(=O)[C@H](CCC(=O)O)N(C)C(=O)[C@H](CC(C)C)NC(=O)[C@@H](CCCNC(=N)N)NC(=O)[C@@H]([C@H](C)O)NC(=O)[C@H](NC(=O)C(NC(=O)[C@H](O)[C@H](O)[C@H](CCCNC(=N)N)NC(=O)[C@H](CC(N)=O)NC(=O
)[C@H](C)[C@H](O)[C@H](C)CC(C)C)C(C)C(C)C(N)=O)[C@@H](C)OC(=O)[C@@H]2CCCCN2C1=O

$$$$

  SciTegic03142313312D

111113  0  0  1  0            999 V2000
    5.8505    4.3013    0.0000 C   0  0
    5.1629    5.6344    0.0000 O   0  0
    3.6638    5.7064    0.0000 C   0  0  2  0  0  0
    2.9743    7.0395    0.0000 C   0  0
    3.7810    8.3042    0.0000 C   0  0
    3.0892    9.6351    0.0000 C   0  0
    1.5907    9.7015    0.0000 C   0  0
    0.8989   11.0324    0.0000 O   0  0
    0.7839    8.4369    0.0000 C   0  0
    1.4757    7.1059    0.0000 C   0  0
    2.8492    4.4334    0.0000 C   0  0  1  0  0  0
    1.4847    5.0565    0.0000 N   0  0
    0.0000    5.2700    0.0000 C   0  0
    0.0000    6.7700    0.0000 O   0  0
   -1.4848    5.0565    0.0000 C   0  0  2  0  0  0
   -1.9077    6.5075    0.0000 C   0  0
   -0.8706    7.5923    0.0000 C   0  0
   -1.2906    9.0332    0.0000 C   0  0
   -2.7478    9.3892    0.0000 N   0  0
   -0.2541   10.1174    0.0000 O   0  0
   -2.8492    4.4334    0.0000 N   0  0
   -3.6602    5.6953    0.0000 C   0  0
   -3.9828    3.4511    0.0000 C   0  0
   -5.1165    4.4334    0.0000 O   0  0
   -4.7938    2.1892    0.0000 C   0  0  2  0  0  0
   -6.1673    2.8197    0.0000 C   0  0
   -6.3080    4.3139    0.0000 C   0  0
   -7.6712    4.9397    0.0000 C   0  0
   -5.0847    5.1820    0.0000 C   0  0
   -5.2164    0.7500    0.0000 N   0  0
   -5.2164   -0.7500    0.0000 C   0  0
   -6.7011   -0.9635    0.0000 O   0  0
   -4.7938   -2.1893    0.0000 C   0  0  1  0  0  0
   -6.1698   -2.8144    0.0000 C   0  0
   -7.3911   -1.9422    0.0000 C   0  0
   -8.7576   -2.5630    0.0000 C   0  0
   -9.9789   -1.6908    0.0000 N   0  0
  -11.3454   -2.3116    0.0000 C   0  0
  -12.5661   -1.4399    0.0000 N   0  0
  -11.4904   -3.8046    0.0000 N   0  0
   -3.9828   -3.4511    0.0000 N   0  0
   -2.8492   -4.4334    0.0000 C   0  0
   -3.6601   -5.6953    0.0000 O   0  0
   -1.4847   -5.0565    0.0000 C   0  0  1  0  0  0
   -1.9085   -6.5073    0.0000 C   0  0  2  0  0  0
   -0.8715   -7.5911    0.0000 C   0  0
   -3.3655   -6.8639    0.0000 O   0  0
    0.0000   -5.2700    0.0000 N   0  0
    1.4847   -5.0565    0.0000 C   0  0
    1.9073   -6.4958    0.0000 O   0  0
    2.8492   -4.4334    0.0000 C   0  0  2  0  0  0
    3.6638   -5.7064    0.0000 N   0  0
    2.9743   -7.0395    0.0000 C   0  0
    1.4759   -7.1084    0.0000 O   0  0
    3.7833   -8.3037    0.0000 C   0  0  3  0  0  0
    3.0938   -9.6367    0.0000 N   0  0
    3.9027  -10.9009    0.0000 C   0  0
    4.9016  -10.8550    0.0000 O   0  0
    3.2132  -12.2340    0.0000 C   0  0  2  0  0  0
    1.7148  -12.3029    0.0000 O   0  0
    4.0221  -13.4981    0.0000 C   0  0  2  0  0  0
    5.5205  -13.4292    0.0000 O   0  0
    3.3326  -14.8312    0.0000 C   0  0  2  0  0  0
    1.8335  -14.9032    0.0000 C   0  0
    1.1455  -16.2371    0.0000 C   0  0
   -0.3536  -16.3091    0.0000 C   0  0
   -1.0416  -17.6429    0.0000 N   0  0
   -2.5407  -17.7150    0.0000 C   0  0
   -3.2283  -19.0481    0.0000 N   0  0
   -3.3518  -16.4532    0.0000 N   0  0
    4.1416  -16.0954    0.0000 N   0  0
    3.4521  -17.4284    0.0000 C   0  0
    1.9537  -17.4973    0.0000 O   0  0
    4.2610  -18.6926    0.0000 C   0  0  2  0  0  0
    5.7604  -18.6267    0.0000 C   0  0
    6.5679  -19.8918    0.0000 C   0  0
    6.1067  -20.7791    0.0000 N   0  0
    8.0665  -19.8260    0.0000 O   0  0
    3.5715  -20.0257    0.0000 N   0  0
    4.3804  -21.2898    0.0000 C   0  0
    5.3794  -21.2439    0.0000 O   0  0
    3.6909  -22.6229    0.0000 C   0  0  2  0  0  0
    2.1925  -22.6918    0.0000 C   0  0
    4.4999  -23.8871    0.0000 C   0  0  2  0  0  0
    5.9983  -23.8182    0.0000 O   0  0
    3.8104  -25.2201    0.0000 C   0  0  2  0  0  0
    2.3120  -25.2891    0.0000 C   0  0
    4.6193  -26.4843    0.0000 C   0  0
    3.9298  -27.8174    0.0000 C   0  0
    4.7383  -29.0809    0.0000 C   0  0
    2.4314  -27.8863    0.0000 C   0  0
    5.2826   -8.2378    0.0000 C   0  0  3  0  0  0
    5.9745   -6.9069    0.0000 C   0  0
    6.0902   -9.5029    0.0000 C   0  0  3  0  0  0
    5.6289  -10.3901    0.0000 C   0  0
    7.5895   -9.4370    0.0000 C   0  0
    8.2814   -8.1061    0.0000 N   0  0
    8.3966  -10.7014    0.0000 O   0  0
    3.9828   -3.4511    0.0000 C   0  0  1  0  0  0
    5.1164   -4.4334    0.0000 C   0  0
    4.7938   -2.1892    0.0000 O   0  0
    5.2164   -0.7500    0.0000 C   0  0
    6.7011   -0.9635    0.0000 O   0  0
    5.2164    0.7500    0.0000 C   0  0  2  0  0  0
    6.6824    0.3988    0.0000 C   0  0
    7.7175    1.4844    0.0000 C   0  0
    7.2949    2.9237    0.0000 C   0  0
    5.8372    3.2773    0.0000 C   0  0
    4.7938    2.1892    0.0000 N   0  0
    3.9828    3.4511    0.0000 C   0  0
    5.1164    4.4334    0.0000 O   0  0
  1  2  1  0
  3  2  1  1
  3  4  1  0
  4  5  2  0
  5  6  1  0
  6  7  2  0
  7  8  1  0
  7  9  1  0
  9 10  2  0
 10  4  1  0
  3 11  1  0
 11 12  1  6
 12 13  1  0
 13 14  2  0
 13 15  1  0
 15 16  1  1
 16 17  1  0
 17 18  1  0
 18 19  1  0
 18 20  2  0
 15 21  1  0
 21 22  1  0
 21 23  1  0
 23 24  2  0
 23 25  1  0
 25 26  1  1
 26 27  1  0
 27 28  1  0
 27 29  1  0
 25 30  1  0
 30 31  1  0
 31 32  2  0
 31 33  1  0
 33 34  1  6
 34 35  1  0
 35 36  1  0
 36 37  1  0
 37 38  1  0
 38 39  2  0
 38 40  1  0
 33 41  1  0
 41 42  1  0
 42 43  2  0
 42 44  1  0
 44 45  1  0
 45 46  1  6
 45 47  1  0
 44 48  1  6
 48 49  1  0
 49 50  2  0
 49 51  1  0
 51 52  1  1
 52 53  1  0
 53 54  2  0
 53 55  1  0
 55 56  1  4
 56 57  1  0
 57 58  2  0
 57 59  1  0
 59 60  1  1
 59 61  1  0
 61 62  1  6
 61 63  1  0
 63 64  1  1
 64 65  1  0
 65 66  1  0
 66 67  1  0
 67 68  1  0
 68 69  2  0
 68 70  1  0
 63 71  1  0
 71 72  1  0
 72 73  2  0
 72 74  1  0
 74 75  1  6
 75 76  1  0
 76 77  1  0
 76 78  2  0
 74 79  1  0
 79 80  1  0
 80 81  2  0
 80 82  1  0
 82 83  1  1
 82 84  1  0
 84 85  1  6
 84 86  1  0
 86 87  1  1
 86 88  1  0
 88 89  1  0
 89 90  1  0
 89 91  1  0
 55 92  1  0
 92 93  1  4
 92 94  1  0
 94 95  1  4
 94 96  1  0
 96 97  1  0
 96 98  2  0
 51 99  1  0
 99100  1  6
 99101  1  0
101102  1  0
102103  2  0
102104  1  0
104105  1  1
105106  1  0
106107  1  0
107108  1  0
108109  1  0
109104  1  0
109110  1  0
110 11  1  0
110111  2  0
M  END
> <assay_chembl_id>
CHEMBL2216649

> <assay_description>
Cytotoxicity against human LNCAP cells after 72 hrs by alamar blue assay

> <document_journal>
J Nat Prod

> <molecule_chembl_id>
CHEMBL2208229

> <standard_value>
230

> <IC50_uM>
0.23

> <Activity>
Yes

> <Canonical_Smiles>
CO[C@H](c1ccc(O)cc1)[C@H]1NC(=O)[C@H](CCC(N)=O)N(C)C(=O)[C@H](CC(C)C)NC(=O)[C@@H](CCCNC(=N)N)NC(=O)[C@@H]([C@H](C)O)NC(=O)[C@H](NC(=O)C(NC(=O)[C@H](O)[C@H](O)[C@H](CCCNC(=N)N)NC(=O)[C@H](CC(N)=O)NC(=O
)[C@H](C)[C@H](O)[C@H](C)CC(C)C)C(C)C(C)C(N)=O)[C@@H](C)OC(=O)[C@@H]2CCCCN2C1=O

$$$$

  SciTegic03142313312D

 39 43  0  0  1  0            999 V2000
    5.1996   -1.4928    0.0000 C   0  0
    3.8990   -0.7455    0.0000 O   0  0
    2.6003   -1.4977    0.0000 C   0  0
    1.2990   -0.7500    0.0000 C   0  0  2  0  0  0
    1.2990    0.7500    0.0000 O   0  0
    0.0000    1.5000    0.0000 C   0  0
    0.0000    3.0000    0.0000 C   0  0
   -1.2991    3.7500    0.0000 C   0  0
   -2.5981    3.0000    0.0000 C   0  0
   -3.8978    3.7504    0.0000 C   0  0  1  0  0  0
   -5.1957    2.9983    0.0000 O   0  0
   -6.4960    3.7463    0.0000 C   0  0
   -7.7938    2.9942    0.0000 C   0  0
   -9.0940    3.7421    0.0000 C   0  0
  -10.3942    2.9923    0.0000 O   0  0
  -11.6933    3.7421    0.0000 C   0  0
   -9.0964    5.2421    0.0000 C   0  0
   -7.7986    5.9942    0.0000 C   0  0
   -7.8040    7.4950    0.0000 O   0  0
   -9.1053    8.2411    0.0000 C   0  0
   -6.4983    5.2463    0.0000 C   0  0
   -5.2005    5.9983    0.0000 C   0  0
   -5.2029    7.4983    0.0000 O   0  0
   -3.9003    5.2504    0.0000 C   0  0  2  0  0  0
   -2.6025    6.0025    0.0000 O   0  0
   -2.5981    1.5000    0.0000 C   0  0
   -1.2990    0.7500    0.0000 C   0  0
   -1.2990   -0.7500    0.0000 O   0  0
    0.0000   -1.5000    0.0000 C   0  0  1  0  0  0
    0.0000   -3.0008    0.0000 C   0  0
    1.2979   -3.7529    0.0000 C   0  0
    1.2955   -5.2529    0.0000 C   0  0
   -0.0047   -6.0009    0.0000 C   0  0
   -0.0040   -7.5017    0.0000 O   0  0
    1.2949   -8.2519    0.0000 C   0  0
   -1.3026   -5.2488    0.0000 C   0  0
   -2.6051   -5.9945    0.0000 O   0  0
   -3.9019   -5.2406    0.0000 C   0  0
   -1.3002   -3.7488    0.0000 C   0  0
  1  2  1  0
  2  3  1  0
  4  3  1  1
  4  5  1  0
  5  6  1  0
  6  7  2  0
  7  8  1  0
  8  9  2  0
 10  9  1  1
 10 11  1  0
 11 12  1  0
 12 13  2  0
 13 14  1  0
 14 15  1  0
 15 16  1  0
 14 17  2  0
 17 18  1  0
 18 19  1  0
 19 20  1  0
 18 21  2  0
 21 12  1  0
 21 22  1  0
 22 23  2  0
 22 24  1  0
 24 10  1  0
 24 25  1  6
  9 26  1  0
 26 27  2  0
 27  6  1  0
 27 28  1  0
 28 29  1  0
 29  4  1  0
 29 30  1  6
 30 31  2  0
 31 32  1  0
 32 33  2  0
 33 34  1  0
 34 35  1  0
 33 36  1  0
 36 37  1  0
 37 38  1  0
 36 39  2  0
 39 30  1  0
M  END
> <assay_chembl_id>
CHEMBL2320748

> <assay_description>
Antiproliferative activity against human LNCAP cells after 72 hrs after ATPlite kit assay

> <document_journal>
Bioorg Med Chem

> <molecule_chembl_id>
CHEMBL2313580

> <standard_value>
30100

> <IC50_uM>
30.1

> <Activity>
No

> <Canonical_Smiles>
COC[C@@H]1Oc2ccc([C@H]3Oc4cc(OC)cc(OC)c4C(=O)[C@@H]3O)cc2O[C@H]1c1ccc(OC)c(OC)c1

$$$$

  SciTegic03142313312D

 36 40  0  0  1  0            999 V2000
    2.5951   -3.0031    0.0000 C   0  0
    2.5973   -1.5031    0.0000 O   0  0
    1.2990   -0.7500    0.0000 C   0  0
    1.2990    0.7500    0.0000 C   0  0
    0.0000    1.5000    0.0000 C   0  0
    0.0000    3.0000    0.0000 O   0  0
   -1.2990    0.7500    0.0000 C   0  0
   -1.2990   -0.7500    0.0000 C   0  0
    0.0000   -1.5000    0.0000 C   0  0
   -2.5981   -1.5000    0.0000 O   0  0
   -3.8971   -0.7500    0.0000 C   0  0  2  0  0  0
   -5.1968   -1.5004    0.0000 C   0  0
   -6.4971   -0.7525    0.0000 C   0  0
   -7.7950   -1.5046    0.0000 C   0  0
   -7.7926   -3.0046    0.0000 C   0  0
   -6.4924   -3.7525    0.0000 C   0  0
   -5.1945   -3.0005    0.0000 C   0  0
   -6.4900   -5.2525    0.0000 O   0  0
   -7.7878   -6.0046    0.0000 C   0  0  1  0  0  0
   -7.7854   -7.5053    0.0000 C   0  0
   -9.0821   -8.2596    0.0000 C   0  0
   -9.0773   -9.7596    0.0000 C   0  0
   -7.7759  -10.5054    0.0000 C   0  0
   -7.7711  -12.0054    0.0000 O   0  0
   -6.4793   -9.7513    0.0000 C   0  0
   -5.1756  -10.4949    0.0000 O   0  0
   -3.8800   -9.7389    0.0000 C   0  0
   -6.4840   -8.2513    0.0000 C   0  0
   -9.0880   -5.2566    0.0000 C   0  0  2  0  0  0
  -10.3851   -6.0118    0.0000 C   0  0
  -10.3805   -7.5118    0.0000 O   0  0
   -9.0904   -3.7566    0.0000 O   0  0
   -3.8971    0.7500    0.0000 C   0  0  1  0  0  0
   -5.1962    1.5000    0.0000 O   0  0
   -2.5981    1.5000    0.0000 C   0  0
   -2.5981    3.0000    0.0000 O   0  0
  1  2  1  0
  2  3  1  0
  3  4  2  0
  4  5  1  0
  5  6  1  0
  5  7  2  0
  7  8  1  0
  8  9  2  0
  9  3  1  0
  8 10  1  0
 10 11  1  0
 11 12  1  6
 12 13  2  0
 13 14  1  0
 14 15  2  0
 15 16  1  0
 16 17  2  0
 17 12  1  0
 16 18  1  0
 18 19  1  0
 19 20  1  1
 20 21  2  0
 21 22  1  0
 22 23  2  0
 23 24  1  0
 23 25  1  0
 25 26  1  0
 26 27  1  0
 25 28  2  0
 28 20  1  0
 19 29  1  0
 29 30  1  6
 30 31  1  0
 29 32  1  0
 32 15  1  0
 11 33  1  0
 33 34  1  1
 33 35  1  0
 35  7  1  0
 35 36  2  0
M  END
> <assay_chembl_id>
CHEMBL2320748

> <assay_description>
Antiproliferative activity against human LNCAP cells after 72 hrs after ATPlite kit assay

> <document_journal>
Bioorg Med Chem

> <molecule_chembl_id>
CHEMBL2313578

> <standard_value>
20100

> <IC50_uM>
20.1

> <Activity>
No

> <Canonical_Smiles>
COc1cc(O)c2c(c1)O[C@H](c1ccc3c(c1)O[C@@H](c1ccc(O)c(OC)c1)[C@H](CO)O3)[C@@H](O)C2=O

$$$$

  SciTegic03142313312D

 38 42  0  0  1  0            999 V2000
    2.5951   -3.0031    0.0000 C   0  0
    2.5973   -1.5031    0.0000 O   0  0
    1.2990   -0.7500    0.0000 C   0  0
    1.2990    0.7500    0.0000 C   0  0
    0.0000    1.5000    0.0000 C   0  0
    0.0031    3.0008    0.0000 O   0  0
    1.3032    3.7490    0.0000 C   0  0
   -1.2990    0.7500    0.0000 C   0  0
   -1.2990   -0.7500    0.0000 C   0  0
    0.0000   -1.5000    0.0000 C   0  0
   -2.5981   -1.5000    0.0000 O   0  0
   -3.8971   -0.7500    0.0000 C   0  0  2  0  0  0
   -5.1968   -1.5004    0.0000 C   0  0
   -6.4971   -0.7525    0.0000 C   0  0
   -7.7950   -1.5046    0.0000 C   0  0
   -7.7926   -3.0046    0.0000 C   0  0
   -6.4924   -3.7525    0.0000 C   0  0
   -5.1945   -3.0005    0.0000 C   0  0
   -6.4900   -5.2525    0.0000 O   0  0
   -7.7878   -6.0046    0.0000 C   0  0  1  0  0  0
   -7.7854   -7.5053    0.0000 C   0  0
   -9.0821   -8.2596    0.0000 C   0  0
   -9.0773   -9.7596    0.0000 C   0  0
   -7.7759  -10.5054    0.0000 C   0  0
   -7.7742  -12.0063    0.0000 O   0  0
   -9.0719  -12.7585    0.0000 C   0  0
   -6.4793   -9.7513    0.0000 C   0  0
   -5.1756  -10.4949    0.0000 O   0  0
   -3.8800   -9.7389    0.0000 C   0  0
   -6.4840   -8.2513    0.0000 C   0  0
   -9.0880   -5.2566    0.0000 C   0  0  2  0  0  0
  -10.3851   -6.0118    0.0000 C   0  0
  -10.3805   -7.5118    0.0000 O   0  0
   -9.0904   -3.7566    0.0000 O   0  0
   -3.8971    0.7500    0.0000 C   0  0  1  0  0  0
   -5.1962    1.5000    0.0000 O   0  0
   -2.5981    1.5000    0.0000 C   0  0
   -2.5981    3.0000    0.0000 O   0  0
  1  2  1  0
  2  3  1  0
  3  4  2  0
  4  5  1  0
  5  6  1  0
  6  7  1  0
  5  8  2  0
  8  9  1  0
  9 10  2  0
 10  3  1  0
  9 11  1  0
 11 12  1  0
 12 13  1  6
 13 14  2  0
 14 15  1  0
 15 16  2  0
 16 17  1  0
 17 18  2  0
 18 13  1  0
 17 19  1  0
 19 20  1  0
 20 21  1  1
 21 22  2  0
 22 23  1  0
 23 24  2  0
 24 25  1  0
 25 26  1  0
 24 27  1  0
 27 28  1  0
 28 29  1  0
 27 30  2  0
 30 21  1  0
 20 31  1  0
 31 32  1  6
 32 33  1  0
 31 34  1  0
 34 16  1  0
 12 35  1  0
 35 36  1  1
 35 37  1  0
 37  8  1  0
 37 38  2  0
M  END
> <assay_chembl_id>
CHEMBL2320748

> <assay_description>
Antiproliferative activity against human LNCAP cells after 72 hrs after ATPlite kit assay

> <document_journal>
Bioorg Med Chem

> <molecule_chembl_id>
CHEMBL2313577

> <standard_value>
40700

> <IC50_uM>
40.7

> <Activity>
No

> <Canonical_Smiles>
COc1cc(OC)c2c(c1)O[C@H](c1ccc3c(c1)O[C@@H](c1ccc(OC)c(OC)c1)[C@H](CO)O3)[C@@H](O)C2=O

$$$$

  SciTegic03142313312D

 35 39  0  0  1  0            999 V2000
    2.6018   -5.9994    0.0000 C   0  0
    3.9008   -5.2492    0.0000 O   0  0
    3.9014   -3.7484    0.0000 C   0  0
    2.6012   -3.0004    0.0000 C   0  0
    2.5987   -1.5004    0.0000 C   0  0
    1.2990   -0.7500    0.0000 C   0  0  2  0  0  0
    1.2990    0.7500    0.0000 O   0  0
    0.0000    1.5000    0.0000 C   0  0
    0.0000    3.0000    0.0000 C   0  0
   -1.2991    3.7500    0.0000 C   0  0
   -1.2991    5.2507    0.0000 C   0  0  1  0  0  0
   -2.5993    5.9988    0.0000 O   0  0
   -2.6017    7.4988    0.0000 C   0  0
   -3.9019    8.2467    0.0000 C   0  0
   -3.9043    9.7467    0.0000 C   0  0
   -5.2045   10.4947    0.0000 O   0  0
   -2.6065   10.4988    0.0000 C   0  0
   -1.3062    9.7509    0.0000 C   0  0
   -0.0084   10.5029    0.0000 O   0  0
   -1.3039    8.2509    0.0000 C   0  0
   -0.0036    7.5029    0.0000 C   0  0
    1.2942    8.2550    0.0000 O   0  0
   -0.0012    6.0029    0.0000 C   0  0  2  0  0  0
    1.2990    5.2550    0.0000 O   0  0
   -2.5981    3.0000    0.0000 C   0  0
   -2.5981    1.5000    0.0000 C   0  0
   -1.2990    0.7500    0.0000 C   0  0
   -1.2990   -0.7500    0.0000 O   0  0
    0.0000   -1.5000    0.0000 C   0  0  1  0  0  0
   -0.0031   -3.0008    0.0000 C   0  0
   -1.3032   -3.7490    0.0000 O   0  0
    3.8967   -0.7484    0.0000 C   0  0
    5.1969   -1.4963    0.0000 C   0  0
    5.1993   -2.9963    0.0000 C   0  0
    6.4995   -3.7442    0.0000 O   0  0
  1  2  1  0
  2  3  1  0
  3  4  2  0
  4  5  1  0
  6  5  1  1
  6  7  1  0
  7  8  1  0
  8  9  2  0
  9 10  1  0
 11 10  1  1
 11 12  1  0
 12 13  1  0
 13 14  2  0
 14 15  1  0
 15 16  1  0
 15 17  2  0
 17 18  1  0
 18 19  1  0
 18 20  2  0
 20 13  1  0
 20 21  1  0
 21 22  2  0
 21 23  1  0
 23 11  1  0
 23 24  1  6
 10 25  2  0
 25 26  1  0
 26 27  2  0
 27  8  1  0
 27 28  1  0
 28 29  1  0
 29  6  1  0
 29 30  1  6
 30 31  1  0
  5 32  2  0
 32 33  1  0
 33 34  2  0
 34  3  1  0
 34 35  1  0
M  END
> <assay_chembl_id>
CHEMBL2320748

> <assay_description>
Antiproliferative activity against human LNCAP cells after 72 hrs after ATPlite kit assay

> <document_journal>
Bioorg Med Chem

> <molecule_chembl_id>
CHEMBL592675

> <standard_value>
69600

> <IC50_uM>
69.6

> <Activity>
No

> <Canonical_Smiles>
COc1cc([C@@H]2Oc3cc([C@H]4Oc5cc(O)cc(O)c5C(=O)[C@@H]4O)ccc3O[C@H]2CO)ccc1O

$$$$

  SciTegic03142313312D

 26 28  0  0  0  0            999 V2000
    3.8983   -0.7459    0.0000 C   0  0
    2.6003   -1.4977    0.0000 O   0  0
    1.2990   -0.7500    0.0000 C   0  0
    1.2990    0.7500    0.0000 C   0  0
    0.0000    1.5000    0.0000 C   0  0
   -0.0031    3.0008    0.0000 C   0  0
    1.2946    3.7531    0.0000 O   0  0
   -1.3039    3.7494    0.0000 C   0  0
   -1.4470    5.2297    0.0000 N   0  0
   -2.9153    5.5365    0.0000 C   0  0
   -3.5304    6.9054    0.0000 C   0  0
   -2.7488    8.1798    0.0000 C   0  0
   -3.4649    9.4979    0.0000 C   0  0
   -4.9644    9.5368    0.0000 C   0  0
   -5.7478    8.2576    0.0000 C   0  0
   -5.0318    6.9395    0.0000 C   0  0
   -3.6607    4.2349    0.0000 C   0  0
   -5.1520    4.0729    0.0000 C   0  0
   -2.6532    3.1236    0.0000 N   0  0
   -1.2990    0.7500    0.0000 C   0  0
   -1.2990   -0.7500    0.0000 C   0  0
   -2.6003   -1.4978    0.0000 O   0  0
   -3.8983   -0.7459    0.0000 C   0  0
    0.0000   -1.5000    0.0000 C   0  0
    0.0031   -3.0008    0.0000 O   0  0
    1.3032   -3.7490    0.0000 C   0  0
  1  2  1  0
  2  3  1  0
  3  4  2  0
  4  5  1  0
  5  6  1  0
  6  7  2  0
  6  8  1  0
  8  9  2  0
  9 10  1  0
 10 11  1  0
 11 12  2  0
 12 13  1  0
 13 14  2  0
 14 15  1  0
 15 16  2  0
 16 11  1  0
 10 17  2  0
 17 18  1  0
 17 19  1  0
 19  8  1  0
  5 20  2  0
 20 21  1  0
 21 22  1  0
 22 23  1  0
 21 24  2  0
 24  3  1  0
 24 25  1  0
 25 26  1  0
M  END
> <assay_chembl_id>
CHEMBL2330839

> <assay_description>
Cytotoxicity against human LNCAP cells assessed as growth inhibition after 96 hrs by SRB assay

> <document_journal>
J Med Chem

> <molecule_chembl_id>
CHEMBL2322319

> <standard_value>
938

> <IC50_uM>
0.938

> <Activity>
Yes

> <Canonical_Smiles>
COc1cc(C(=O)c2nc(-c3ccccc3)c(C)[nH]2)cc(OC)c1OC

$$$$

  SciTegic03142313312D

 31 34  0  0  0  0            999 V2000
    3.8983   -0.7459    0.0000 C   0  0
    2.6003   -1.4977    0.0000 O   0  0
    1.2990   -0.7500    0.0000 C   0  0
    1.2990    0.7500    0.0000 C   0  0
    0.0000    1.5000    0.0000 C   0  0
   -0.0031    3.0008    0.0000 C   0  0
    1.2946    3.7531    0.0000 O   0  0
   -1.3039    3.7494    0.0000 C   0  0
   -2.6532    3.1236    0.0000 N   0  0
   -3.6607    4.2349    0.0000 C   0  0
   -5.1527    4.0728    0.0000 C   0  0
   -5.8565    2.7538    0.0000 C   0  0
   -7.3557    2.7045    0.0000 C   0  0
   -8.1480    3.9781    0.0000 C   0  0
   -7.4411    5.3011    0.0000 C   0  0
   -5.9419    5.3504    0.0000 C   0  0
   -2.9153    5.5365    0.0000 C   0  0
   -1.4470    5.2297    0.0000 N   0  0
   -0.3292    6.2312    0.0000 C   0  0
    1.1235    5.8791    0.0000 C   0  0
    2.1577    6.9656    0.0000 C   0  0
    1.7338    8.4045    0.0000 C   0  0
    0.2758    8.7569    0.0000 C   0  0
   -0.7584    7.6704    0.0000 N   0  0
   -1.2990    0.7500    0.0000 C   0  0
   -1.2990   -0.7500    0.0000 C   0  0
   -2.6003   -1.4978    0.0000 O   0  0
   -3.8983   -0.7459    0.0000 C   0  0
    0.0000   -1.5000    0.0000 C   0  0
    0.0031   -3.0008    0.0000 O   0  0
    1.3032   -3.7490    0.0000 C   0  0
  1  2  1  0
  2  3  1  0
  3  4  2  0
  4  5  1  0
  5  6  1  0
  6  7  2  0
  6  8  1  0
  8  9  2  0
  9 10  1  0
 10 11  1  0
 11 12  2  0
 12 13  1  0
 13 14  2  0
 14 15  1  0
 15 16  2  0
 16 11  1  0
 10 17  2  0
 17 18  1  0
 18  8  1  0
 18 19  1  0
 19 20  2  0
 20 21  1  0
 21 22  2  0
 22 23  1  0
 23 24  2  0
 24 19  1  0
  5 25  2  0
 25 26  1  0
 26 27  1  0
 27 28  1  0
 26 29  2  0
 29  3  1  0
 29 30  1  0
 30 31  1  0
M  END
> <assay_chembl_id>
CHEMBL2330839

> <assay_description>
Cytotoxicity against human LNCAP cells assessed as growth inhibition after 96 hrs by SRB assay

> <document_journal>
J Med Chem

> <molecule_chembl_id>
CHEMBL2322317

> <standard_value>
20

> <IC50_uM>
0.02

> <Activity>
Yes

> <Canonical_Smiles>
COc1cc(C(=O)c2nc(-c3ccccc3)cn2-c2ccccn2)cc(OC)c1OC

$$$$

  SciTegic03142313312D

 30 33  0  0  0  0            999 V2000
    3.8983   -0.7459    0.0000 C   0  0
    2.6003   -1.4977    0.0000 O   0  0
    1.2990   -0.7500    0.0000 C   0  0
    1.2990    0.7500    0.0000 C   0  0
    0.0000    1.5000    0.0000 C   0  0
   -0.0031    3.0008    0.0000 C   0  0
    1.2946    3.7531    0.0000 O   0  0
   -1.3039    3.7494    0.0000 C   0  0
   -2.6532    3.1236    0.0000 N   0  0
   -3.6607    4.2349    0.0000 C   0  0
   -5.1527    4.0728    0.0000 C   0  0
   -5.8565    2.7538    0.0000 C   0  0
   -7.3557    2.7045    0.0000 C   0  0
   -8.1480    3.9781    0.0000 C   0  0
   -7.4411    5.3011    0.0000 C   0  0
   -5.9419    5.3504    0.0000 C   0  0
   -2.9153    5.5365    0.0000 C   0  0
   -1.4470    5.2297    0.0000 N   0  0
   -0.3292    6.2312    0.0000 C   0  0
    1.1382    6.0220    0.0000 C   0  0
    1.7817    7.3769    0.0000 C   0  0
    0.6920    8.4076    0.0000 C   0  0
   -0.6251    7.6897    0.0000 C   0  0
   -1.2990    0.7500    0.0000 C   0  0
   -1.2990   -0.7500    0.0000 C   0  0
   -2.6003   -1.4978    0.0000 O   0  0
   -3.8983   -0.7459    0.0000 C   0  0
    0.0000   -1.5000    0.0000 C   0  0
    0.0031   -3.0008    0.0000 O   0  0
    1.3032   -3.7490    0.0000 C   0  0
  1  2  1  0
  2  3  1  0
  3  4  2  0
  4  5  1  0
  5  6  1  0
  6  7  2  0
  6  8  1  0
  8  9  2  0
  9 10  1  0
 10 11  1  0
 11 12  2  0
 12 13  1  0
 13 14  2  0
 14 15  1  0
 15 16  2  0
 16 11  1  0
 10 17  2  0
 17 18  1  0
 18  8  1  0
 18 19  1  0
 19 20  1  0
 20 21  1  0
 21 22  1  0
 22 23  1  0
 23 19  1  0
  5 24  2  0
 24 25  1  0
 25 26  1  0
 26 27  1  0
 25 28  2  0
 28  3  1  0
 28 29  1  0
 29 30  1  0
M  END
> <assay_chembl_id>
CHEMBL2330839

> <assay_description>
Cytotoxicity against human LNCAP cells assessed as growth inhibition after 96 hrs by SRB assay

> <document_journal>
J Med Chem

> <molecule_chembl_id>
CHEMBL2322316

> <standard_value>
51

> <IC50_uM>
0.051

> <Activity>
Yes

> <Canonical_Smiles>
COc1cc(C(=O)c2nc(-c3ccccc3)cn2C2CCCC2)cc(OC)c1OC

$$$$

  SciTegic03142313312D

 28 30  0  0  0  0            999 V2000
    3.8983   -0.7459    0.0000 C   0  0
    2.6003   -1.4977    0.0000 O   0  0
    1.2990   -0.7500    0.0000 C   0  0
    1.2990    0.7500    0.0000 C   0  0
    0.0000    1.5000    0.0000 C   0  0
   -0.0031    3.0008    0.0000 C   0  0
    1.2946    3.7531    0.0000 O   0  0
   -1.3039    3.7494    0.0000 C   0  0
   -2.6532    3.1236    0.0000 N   0  0
   -3.6607    4.2349    0.0000 C   0  0
   -5.1527    4.0728    0.0000 C   0  0
   -5.8565    2.7538    0.0000 C   0  0
   -7.3557    2.7045    0.0000 C   0  0
   -8.1480    3.9781    0.0000 C   0  0
   -7.4411    5.3011    0.0000 C   0  0
   -5.9419    5.3504    0.0000 C   0  0
   -2.9153    5.5365    0.0000 C   0  0
   -1.4470    5.2297    0.0000 N   0  0
   -0.3315    6.2299    0.0000 C   0  0
   -0.6392    7.6980    0.0000 C   0  0
    1.0940    5.7628    0.0000 C   0  0
   -1.2990    0.7500    0.0000 C   0  0
   -1.2990   -0.7500    0.0000 C   0  0
   -2.6003   -1.4978    0.0000 O   0  0
   -3.8983   -0.7459    0.0000 C   0  0
    0.0000   -1.5000    0.0000 C   0  0
    0.0031   -3.0008    0.0000 O   0  0
    1.3032   -3.7490    0.0000 C   0  0
  1  2  1  0
  2  3  1  0
  3  4  2  0
  4  5  1  0
  5  6  1  0
  6  7  2  0
  6  8  1  0
  8  9  2  0
  9 10  1  0
 10 11  1  0
 11 12  2  0
 12 13  1  0
 13 14  2  0
 14 15  1  0
 15 16  2  0
 16 11  1  0
 10 17  2  0
 17 18  1  0
 18  8  1  0
 18 19  1  0
 19 20  1  0
 19 21  1  0
  5 22  2  0
 22 23  1  0
 23 24  1  0
 24 25  1  0
 23 26  2  0
 26  3  1  0
 26 27  1  0
 27 28  1  0
M  END
> <assay_chembl_id>
CHEMBL2330839

> <assay_description>
Cytotoxicity against human LNCAP cells assessed as growth inhibition after 96 hrs by SRB assay

> <document_journal>
J Med Chem

> <molecule_chembl_id>
CHEMBL2322315

> <standard_value>
62

> <IC50_uM>
0.062

> <Activity>
Yes

> <Canonical_Smiles>
COc1cc(C(=O)c2nc(-c3ccccc3)cn2C(C)C)cc(OC)c1OC

$$$$

  SciTegic03142313312D

 28 30  0  0  0  0            999 V2000
    8.5454   -0.3119    0.0000 C   0  0
    7.0537   -0.4695    0.0000 C   0  0
    6.4430   -1.8405    0.0000 C   0  0
    4.9531   -1.9978    0.0000 N   0  0
    3.9511   -0.8815    0.0000 C   0  0
    2.5987   -1.5004    0.0000 C   0  0
    1.2990   -0.7500    0.0000 C   0  0
    1.2990    0.7500    0.0000 C   0  0
    0.0000    1.5000    0.0000 C   0  0
   -1.2990    0.7500    0.0000 C   0  0
   -1.2990   -0.7500    0.0000 C   0  0
    0.0000   -1.5000    0.0000 C   0  0
    2.7343   -2.9815    0.0000 N   0  0
    4.2010   -3.2956    0.0000 C   0  0
    4.8054   -4.6666    0.0000 C   0  0
    6.2966   -4.8284    0.0000 O   0  0
    3.9195   -5.8781    0.0000 C   0  0
    4.5226   -7.2516    0.0000 C   0  0
    3.6348   -8.4606    0.0000 C   0  0
    4.2411   -9.8335    0.0000 O   0  0
    5.7323   -9.9957    0.0000 C   0  0
    2.1438   -8.2963    0.0000 C   0  0
    1.2531   -9.5042    0.0000 O   0  0
   -0.2377   -9.3377    0.0000 C   0  0
    1.5407   -6.9229    0.0000 C   0  0
    0.0492   -6.7554    0.0000 O   0  0
   -0.5520   -5.3811    0.0000 C   0  0
    2.4285   -5.7138    0.0000 C   0  0
  1  2  1  0
  2  3  1  0
  3  4  1  0
  4  5  1  0
  5  6  2  0
  6  7  1  0
  7  8  2  0
  8  9  1  0
  9 10  2  0
 10 11  1  0
 11 12  2  0
 12  7  1  0
  6 13  1  0
 13 14  2  0
 14  4  1  0
 14 15  1  0
 15 16  2  0
 15 17  1  0
 17 18  2  0
 18 19  1  0
 19 20  1  0
 20 21  1  0
 19 22  2  0
 22 23  1  0
 23 24  1  0
 22 25  1  0
 25 26  1  0
 26 27  1  0
 25 28  2  0
 28 17  1  0
M  END
> <assay_chembl_id>
CHEMBL2330839

> <assay_description>
Cytotoxicity against human LNCAP cells assessed as growth inhibition after 96 hrs by SRB assay

> <document_journal>
J Med Chem

> <molecule_chembl_id>
CHEMBL2322314

> <standard_value>
49

> <IC50_uM>
0.049

> <Activity>
Yes

> <Canonical_Smiles>
CCCn1cc(-c2ccccc2)nc1C(=O)c1cc(OC)c(OC)c(OC)c1

$$$$

  SciTegic03142313312D

 32 35  0  0  0  0            999 V2000
    3.8983   -0.7459    0.0000 C   0  0
    2.6003   -1.4977    0.0000 O   0  0
    1.2990   -0.7500    0.0000 C   0  0
    1.2990    0.7500    0.0000 C   0  0
    0.0000    1.5000    0.0000 C   0  0
   -0.0031    3.0008    0.0000 C   0  0
    1.2946    3.7531    0.0000 O   0  0
   -1.3039    3.7494    0.0000 C   0  0
   -2.6532    3.1236    0.0000 N   0  0
   -3.6607    4.2349    0.0000 C   0  0
   -5.1527    4.0728    0.0000 C   0  0
   -5.8565    2.7538    0.0000 C   0  0
   -7.3557    2.7045    0.0000 C   0  0
   -8.1480    3.9781    0.0000 C   0  0
   -7.4411    5.3011    0.0000 C   0  0
   -5.9419    5.3504    0.0000 C   0  0
   -2.9153    5.5365    0.0000 C   0  0
   -1.4470    5.2297    0.0000 N   0  0
   -0.3315    6.2299    0.0000 C   0  0
   -0.6394    7.6988    0.0000 C   0  0
    0.4760    8.7017    0.0000 C   0  0
    0.1652   10.1692    0.0000 C   0  0
   -1.2611   10.6337    0.0000 C   0  0
   -2.3765    9.6309    0.0000 C   0  0
   -2.0657    8.1634    0.0000 C   0  0
   -1.2990    0.7500    0.0000 C   0  0
   -1.2990   -0.7500    0.0000 C   0  0
   -2.6003   -1.4978    0.0000 O   0  0
   -3.8983   -0.7459    0.0000 C   0  0
    0.0000   -1.5000    0.0000 C   0  0
    0.0031   -3.0008    0.0000 O   0  0
    1.3032   -3.7490    0.0000 C   0  0
  1  2  1  0
  2  3  1  0
  3  4  2  0
  4  5  1  0
  5  6  1  0
  6  7  2  0
  6  8  1  0
  8  9  2  0
  9 10  1  0
 10 11  1  0
 11 12  2  0
 12 13  1  0
 13 14  2  0
 14 15  1  0
 15 16  2  0
 16 11  1  0
 10 17  2  0
 17 18  1  0
 18  8  1  0
 18 19  1  0
 19 20  1  0
 20 21  2  0
 21 22  1  0
 22 23  2  0
 23 24  1  0
 24 25  2  0
 25 20  1  0
  5 26  2  0
 26 27  1  0
 27 28  1  0
 28 29  1  0
 27 30  2  0
 30  3  1  0
 30 31  1  0
 31 32  1  0
M  END
> <assay_chembl_id>
CHEMBL2330839

> <assay_description>
Cytotoxicity against human LNCAP cells assessed as growth inhibition after 96 hrs by SRB assay

> <document_journal>
J Med Chem

> <molecule_chembl_id>
CHEMBL2322313

> <standard_value>
66

> <IC50_uM>
0.066

> <Activity>
Yes

> <Canonical_Smiles>
COc1cc(C(=O)c2nc(-c3ccccc3)cn2Cc2ccccc2)cc(OC)c1OC

$$$$

  SciTegic03142313312D

 27 29  0  0  0  0            999 V2000
    7.0533   -0.4702    0.0000 C   0  0
    6.4430   -1.8405    0.0000 C   0  0
    4.9531   -1.9978    0.0000 N   0  0
    3.9511   -0.8815    0.0000 C   0  0
    2.5987   -1.5004    0.0000 C   0  0
    1.2990   -0.7500    0.0000 C   0  0
    1.2990    0.7500    0.0000 C   0  0
    0.0000    1.5000    0.0000 C   0  0
   -1.2990    0.7500    0.0000 C   0  0
   -1.2990   -0.7500    0.0000 C   0  0
    0.0000   -1.5000    0.0000 C   0  0
    2.7343   -2.9815    0.0000 N   0  0
    4.2010   -3.2956    0.0000 C   0  0
    4.8054   -4.6666    0.0000 C   0  0
    6.2966   -4.8284    0.0000 O   0  0
    3.9195   -5.8781    0.0000 C   0  0
    4.5226   -7.2516    0.0000 C   0  0
    3.6348   -8.4606    0.0000 C   0  0
    4.2411   -9.8335    0.0000 O   0  0
    5.7323   -9.9957    0.0000 C   0  0
    2.1438   -8.2963    0.0000 C   0  0
    1.2531   -9.5042    0.0000 O   0  0
   -0.2377   -9.3377    0.0000 C   0  0
    1.5407   -6.9229    0.0000 C   0  0
    0.0492   -6.7554    0.0000 O   0  0
   -0.5520   -5.3811    0.0000 C   0  0
    2.4285   -5.7138    0.0000 C   0  0
  1  2  1  0
  2  3  1  0
  3  4  1  0
  4  5  2  0
  5  6  1  0
  6  7  2  0
  7  8  1  0
  8  9  2  0
  9 10  1  0
 10 11  2  0
 11  6  1  0
  5 12  1  0
 12 13  2  0
 13  3  1  0
 13 14  1  0
 14 15  2  0
 14 16  1  0
 16 17  2  0
 17 18  1  0
 18 19  1  0
 19 20  1  0
 18 21  2  0
 21 22  1  0
 22 23  1  0
 21 24  1  0
 24 25  1  0
 25 26  1  0
 24 27  2  0
 27 16  1  0
M  END
> <assay_chembl_id>
CHEMBL2330839

> <assay_description>
Cytotoxicity against human LNCAP cells assessed as growth inhibition after 96 hrs by SRB assay

> <document_journal>
J Med Chem

> <molecule_chembl_id>
CHEMBL2322312

> <standard_value>
29

> <IC50_uM>
0.029

> <Activity>
Yes

> <Canonical_Smiles>
CCn1cc(-c2ccccc2)nc1C(=O)c1cc(OC)c(OC)c(OC)c1

$$$$

  SciTegic03142313312D

 26 28  0  0  0  0            999 V2000
    3.8983   -0.7459    0.0000 C   0  0
    2.6003   -1.4977    0.0000 O   0  0
    1.2990   -0.7500    0.0000 C   0  0
    1.2990    0.7500    0.0000 C   0  0
    0.0000    1.5000    0.0000 C   0  0
   -0.0031    3.0008    0.0000 C   0  0
    1.2946    3.7531    0.0000 O   0  0
   -1.3039    3.7494    0.0000 C   0  0
   -2.6532    3.1236    0.0000 N   0  0
   -3.6607    4.2349    0.0000 C   0  0
   -5.1527    4.0728    0.0000 C   0  0
   -5.8565    2.7538    0.0000 C   0  0
   -7.3557    2.7045    0.0000 C   0  0
   -8.1480    3.9781    0.0000 C   0  0
   -7.4411    5.3011    0.0000 C   0  0
   -5.9419    5.3504    0.0000 C   0  0
   -2.9153    5.5365    0.0000 C   0  0
   -1.4470    5.2297    0.0000 N   0  0
   -0.3298    6.2307    0.0000 C   0  0
   -1.2990    0.7500    0.0000 C   0  0
   -1.2990   -0.7500    0.0000 C   0  0
   -2.6003   -1.4978    0.0000 O   0  0
   -3.8983   -0.7459    0.0000 C   0  0
    0.0000   -1.5000    0.0000 C   0  0
    0.0031   -3.0008    0.0000 O   0  0
    1.3032   -3.7490    0.0000 C   0  0
  1  2  1  0
  2  3  1  0
  3  4  2  0
  4  5  1  0
  5  6  1  0
  6  7  2  0
  6  8  1  0
  8  9  2  0
  9 10  1  0
 10 11  1  0
 11 12  2  0
 12 13  1  0
 13 14  2  0
 14 15  1  0
 15 16  2  0
 16 11  1  0
 10 17  2  0
 17 18  1  0
 18  8  1  0
 18 19  1  0
  5 20  2  0
 20 21  1  0
 21 22  1  0
 22 23  1  0
 21 24  2  0
 24  3  1  0
 24 25  1  0
 25 26  1  0
M  END
> <assay_chembl_id>
CHEMBL2330839

> <assay_description>
Cytotoxicity against human LNCAP cells assessed as growth inhibition after 96 hrs by SRB assay

> <document_journal>
J Med Chem

> <molecule_chembl_id>
CHEMBL2322311

> <standard_value>
10

> <IC50_uM>
0.01

> <Activity>
Yes

> <Canonical_Smiles>
COc1cc(C(=O)c2nc(-c3ccccc3)cn2C)cc(OC)c1OC

$$$$

  SciTegic03142313312D

 27 29  0  0  0  0            999 V2000
    2.5951   -3.0031    0.0000 C   0  0
    2.5973   -1.5031    0.0000 O   0  0
    1.2990   -0.7500    0.0000 C   0  0
    1.2990    0.7500    0.0000 C   0  0
    0.0000    1.5000    0.0000 C   0  0
   -1.2990    0.7500    0.0000 C   0  0
   -2.6003    1.4977    0.0000 C   0  0
   -2.6030    2.9977    0.0000 O   0  0
   -3.8990    0.7455    0.0000 C   0  0
   -5.2526    1.3618    0.0000 N   0  0
   -6.2524    0.2436    0.0000 C   0  0
   -7.7454    0.3952    0.0000 C   0  0
   -8.4584    1.7093    0.0000 C   0  0
   -9.9579    1.7482    0.0000 C   0  0
  -10.6716    3.0685    0.0000 O   0  0
   -9.8864    4.3465    0.0000 C   0  0
  -10.7413    0.4691    0.0000 C   0  0
  -12.2417    0.5049    0.0000 O   0  0
  -13.0233   -0.7754    0.0000 C   0  0
  -10.0252   -0.8490    0.0000 C   0  0
  -10.8064   -2.1305    0.0000 O   0  0
  -10.0885   -3.4475    0.0000 C   0  0
   -8.5257   -0.8879    0.0000 C   0  0
   -5.4979   -1.0529    0.0000 C   0  0
   -4.0317   -0.7359    0.0000 N   0  0
   -1.2990   -0.7500    0.0000 C   0  0
    0.0000   -1.5000    0.0000 C   0  0
  1  2  1  0
  2  3  1  0
  3  4  2  0
  4  5  1  0
  5  6  2  0
  6  7  1  0
  7  8  2  0
  7  9  1  0
  9 10  2  0
 10 11  1  0
 11 12  1  0
 12 13  2  0
 13 14  1  0
 14 15  1  0
 15 16  1  0
 14 17  2  0
 17 18  1  0
 18 19  1  0
 17 20  1  0
 20 21  1  0
 21 22  1  0
 20 23  2  0
 23 12  1  0
 11 24  2  0
 24 25  1  0
 25  9  1  0
  6 26  1  0
 26 27  2  0
 27  3  1  0
M  END
> <assay_chembl_id>
CHEMBL2330839

> <assay_description>
Cytotoxicity against human LNCAP cells assessed as growth inhibition after 96 hrs by SRB assay

> <document_journal>
J Med Chem

> <molecule_chembl_id>
CHEMBL2324338

> <standard_value>
708

> <IC50_uM>
0.708

> <Activity>
Yes

> <Canonical_Smiles>
COc1ccc(C(=O)c2nc(-c3cc(OC)c(OC)c(OC)c3)c[nH]2)cc1

$$$$

  SciTegic03142313312D

 26 28  0  0  0  0            999 V2000
    3.8983   -0.7459    0.0000 C   0  0
    2.6003   -1.4977    0.0000 O   0  0
    1.2990   -0.7500    0.0000 C   0  0
    1.2990    0.7500    0.0000 C   0  0
    0.0000    1.5000    0.0000 C   0  0
    0.0000    3.0008    0.0000 C   0  0
    1.2121    3.8625    0.0000 C   0  0
    0.7463    5.2884    0.0000 N   0  0
   -0.7537    5.2860    0.0000 C   0  0
   -1.6387    6.4949    0.0000 C   0  0
   -1.0332    7.8672    0.0000 O   0  0
   -3.1309    6.3335    0.0000 C   0  0
   -4.0188    7.5425    0.0000 C   0  0
   -5.5097    7.3781    0.0000 C   0  0
   -6.1129    6.0047    0.0000 C   0  0
   -7.6039    5.8404    0.0000 Br  0  0
   -5.2251    4.7957    0.0000 C   0  0
   -3.7341    4.9600    0.0000 C   0  0
   -1.2149    3.8587    0.0000 N   0  0
   -1.2990    0.7500    0.0000 C   0  0
   -1.2990   -0.7500    0.0000 C   0  0
   -2.6003   -1.4978    0.0000 O   0  0
   -3.8983   -0.7459    0.0000 C   0  0
    0.0000   -1.5000    0.0000 C   0  0
    0.0031   -3.0008    0.0000 O   0  0
    1.3032   -3.7490    0.0000 C   0  0
  1  2  1  0
  2  3  1  0
  3  4  2  0
  4  5  1  0
  5  6  1  0
  6  7  2  0
  7  8  1  0
  8  9  1  0
  9 10  1  0
 10 11  2  0
 10 12  1  0
 12 13  2  0
 13 14  1  0
 14 15  2  0
 15 16  1  0
 15 17  1  0
 17 18  2  0
 18 12  1  0
  9 19  2  0
 19  6  1  0
  5 20  2  0
 20 21  1  0
 21 22  1  0
 22 23  1  0
 21 24  2  0
 24  3  1  0
 24 25  1  0
 25 26  1  0
M  END
> <assay_chembl_id>
CHEMBL2330839

> <assay_description>
Cytotoxicity against human LNCAP cells assessed as growth inhibition after 96 hrs by SRB assay

> <document_journal>
J Med Chem

> <molecule_chembl_id>
CHEMBL2324337

> <standard_value>
131

> <IC50_uM>
0.131

> <Activity>
Yes

> <Canonical_Smiles>
COc1cc(-c2c[nH]c(C(=O)c3ccc(Br)cc3)n2)cc(OC)c1OC

$$$$

  SciTegic03142313312D

 25 27  0  0  0  0            999 V2000
    3.8983   -0.7459    0.0000 C   0  0
    2.6003   -1.4977    0.0000 O   0  0
    1.2990   -0.7500    0.0000 C   0  0
    1.2990    0.7500    0.0000 C   0  0
    0.0000    1.5000    0.0000 C   0  0
    0.0000    3.0008    0.0000 C   0  0
    1.2121    3.8625    0.0000 C   0  0
    0.7463    5.2884    0.0000 N   0  0
   -0.7537    5.2860    0.0000 C   0  0
   -1.6387    6.4949    0.0000 C   0  0
   -1.0332    7.8672    0.0000 O   0  0
   -3.1309    6.3335    0.0000 C   0  0
   -4.0188    7.5425    0.0000 C   0  0
   -5.5097    7.3781    0.0000 C   0  0
   -6.1129    6.0047    0.0000 C   0  0
   -5.2251    4.7957    0.0000 C   0  0
   -3.7341    4.9600    0.0000 C   0  0
   -1.2149    3.8587    0.0000 N   0  0
   -1.2990    0.7500    0.0000 C   0  0
   -1.2990   -0.7500    0.0000 C   0  0
   -2.6003   -1.4978    0.0000 O   0  0
   -3.8983   -0.7459    0.0000 C   0  0
    0.0000   -1.5000    0.0000 C   0  0
    0.0031   -3.0008    0.0000 O   0  0
    1.3032   -3.7490    0.0000 C   0  0
  1  2  1  0
  2  3  1  0
  3  4  2  0
  4  5  1  0
  5  6  1  0
  6  7  2  0
  7  8  1  0
  8  9  1  0
  9 10  1  0
 10 11  2  0
 10 12  1  0
 12 13  2  0
 13 14  1  0
 14 15  2  0
 15 16  1  0
 16 17  2  0
 17 12  1  0
  9 18  2  0
 18  6  1  0
  5 19  2  0
 19 20  1  0
 20 21  1  0
 21 22  1  0
 20 23  2  0
 23  3  1  0
 23 24  1  0
 24 25  1  0
M  END
> <assay_chembl_id>
CHEMBL2330839

> <assay_description>
Cytotoxicity against human LNCAP cells assessed as growth inhibition after 96 hrs by SRB assay

> <document_journal>
J Med Chem

> <molecule_chembl_id>
CHEMBL2324336

> <standard_value>
195

> <IC50_uM>
0.195

> <Activity>
Yes

> <Canonical_Smiles>
COc1cc(-c2c[nH]c(C(=O)c3ccccc3)n2)cc(OC)c1OC

$$$$

  SciTegic03142313312D

 26 28  0  0  0  0            999 V2000
    3.8983   -0.7459    0.0000 C   0  0
    2.6003   -1.4977    0.0000 O   0  0
    1.2990   -0.7500    0.0000 C   0  0
    1.2990    0.7500    0.0000 C   0  0
    0.0000    1.5000    0.0000 C   0  0
   -0.0031    3.0008    0.0000 C   0  0
    1.2946    3.7531    0.0000 O   0  0
   -1.3039    3.7494    0.0000 C   0  0
   -1.4470    5.2297    0.0000 N   0  0
   -2.9153    5.5365    0.0000 C   0  0
   -3.5304    6.9054    0.0000 C   0  0
   -2.7488    8.1798    0.0000 C   0  0
   -3.4649    9.4979    0.0000 C   0  0
   -4.9644    9.5368    0.0000 C   0  0
   -5.6805   10.8548    0.0000 O   0  0
   -5.7478    8.2576    0.0000 C   0  0
   -5.0318    6.9395    0.0000 C   0  0
   -3.6607    4.2349    0.0000 C   0  0
   -2.6532    3.1236    0.0000 N   0  0
   -1.2990    0.7500    0.0000 C   0  0
   -1.2990   -0.7500    0.0000 C   0  0
   -2.6003   -1.4978    0.0000 O   0  0
   -3.8983   -0.7459    0.0000 C   0  0
    0.0000   -1.5000    0.0000 C   0  0
    0.0031   -3.0008    0.0000 O   0  0
    1.3032   -3.7490    0.0000 C   0  0
  1  2  1  0
  2  3  1  0
  3  4  2  0
  4  5  1  0
  5  6  1  0
  6  7  2  0
  6  8  1  0
  8  9  2  0
  9 10  1  0
 10 11  1  0
 11 12  2  0
 12 13  1  0
 13 14  2  0
 14 15  1  0
 14 16  1  0
 16 17  2  0
 17 11  1  0
 10 18  2  0
 18 19  1  0
 19  8  1  0
  5 20  2  0
 20 21  1  0
 21 22  1  0
 22 23  1  0
 21 24  2  0
 24  3  1  0
 24 25  1  0
 25 26  1  0
M  END
> <assay_chembl_id>
CHEMBL2330839

> <assay_description>
Cytotoxicity against human LNCAP cells assessed as growth inhibition after 96 hrs by SRB assay

> <document_journal>
J Med Chem

> <molecule_chembl_id>
CHEMBL2324335

> <standard_value>
219

> <IC50_uM>
0.219

> <Activity>
Yes

> <Canonical_Smiles>
COc1cc(C(=O)c2nc(-c3ccc(O)cc3)c[nH]2)cc(OC)c1OC

$$$$

  SciTegic03142313312D

 28 30  0  0  0  0            999 V2000
    3.8983   -0.7459    0.0000 C   0  0
    2.6003   -1.4977    0.0000 O   0  0
    1.2990   -0.7500    0.0000 C   0  0
    1.2990    0.7500    0.0000 C   0  0
    0.0000    1.5000    0.0000 C   0  0
   -0.0031    3.0008    0.0000 C   0  0
    1.2946    3.7531    0.0000 O   0  0
   -1.3039    3.7494    0.0000 C   0  0
   -1.4470    5.2297    0.0000 N   0  0
   -2.9153    5.5365    0.0000 C   0  0
   -3.5304    6.9054    0.0000 C   0  0
   -2.7488    8.1798    0.0000 C   0  0
   -3.4649    9.4979    0.0000 C   0  0
   -4.9644    9.5368    0.0000 C   0  0
   -5.6836   10.8540    0.0000 N   0  0
   -7.1832   10.8908    0.0000 C   0  0
   -4.9024   12.1346    0.0000 C   0  0
   -5.7478    8.2576    0.0000 C   0  0
   -5.0318    6.9395    0.0000 C   0  0
   -3.6607    4.2349    0.0000 C   0  0
   -2.6532    3.1236    0.0000 N   0  0
   -1.2990    0.7500    0.0000 C   0  0
   -1.2990   -0.7500    0.0000 C   0  0
   -2.6003   -1.4978    0.0000 O   0  0
   -3.8983   -0.7459    0.0000 C   0  0
    0.0000   -1.5000    0.0000 C   0  0
    0.0031   -3.0008    0.0000 O   0  0
    1.3032   -3.7490    0.0000 C   0  0
  1  2  1  0
  2  3  1  0
  3  4  2  0
  4  5  1  0
  5  6  1  0
  6  7  2  0
  6  8  1  0
  8  9  2  0
  9 10  1  0
 10 11  1  0
 11 12  2  0
 12 13  1  0
 13 14  2  0
 14 15  1  0
 15 16  1  0
 15 17  1  0
 14 18  1  0
 18 19  2  0
 19 11  1  0
 10 20  2  0
 20 21  1  0
 21  8  1  0
  5 22  2  0
 22 23  1  0
 23 24  1  0
 24 25  1  0
 23 26  2  0
 26  3  1  0
 26 27  1  0
 27 28  1  0
M  END
> <assay_chembl_id>
CHEMBL2330839

> <assay_description>
Cytotoxicity against human LNCAP cells assessed as growth inhibition after 96 hrs by SRB assay

> <document_journal>
J Med Chem

> <molecule_chembl_id>
CHEMBL2324334

> <standard_value>
96

> <IC50_uM>
0.096

> <Activity>
Yes

> <Canonical_Smiles>
COc1cc(C(=O)c2nc(-c3ccc(N(C)C)cc3)c[nH]2)cc(OC)c1OC

$$$$

  SciTegic03142313312D

 27 29  0  0  0  0            999 V2000
    2.5951   -3.0031    0.0000 C   0  0
    2.5973   -1.5031    0.0000 O   0  0
    1.2990   -0.7500    0.0000 C   0  0
    1.2990    0.7500    0.0000 C   0  0
    0.0000    1.5000    0.0000 C   0  0
   -1.2990    0.7500    0.0000 C   0  0
   -2.5987    1.5004    0.0000 C   0  0
   -2.7390    2.9810    0.0000 C   0  0
   -4.2067    3.2905    0.0000 N   0  0
   -4.9546    1.9903    0.0000 C   0  0
   -6.4441    1.8282    0.0000 C   0  0
   -7.3298    3.0388    0.0000 O   0  0
   -7.0504    0.4553    0.0000 C   0  0
   -8.5414    0.2909    0.0000 C   0  0
   -9.1445   -1.0825    0.0000 C   0  0
  -10.6366   -1.2439    0.0000 O   0  0
  -11.5227   -0.0336    0.0000 C   0  0
   -8.2567   -2.2916    0.0000 C   0  0
   -8.8573   -3.6670    0.0000 O   0  0
   -7.9678   -4.8747    0.0000 C   0  0
   -6.7657   -2.1272    0.0000 C   0  0
   -5.8749   -3.3351    0.0000 O   0  0
   -4.3842   -3.1686    0.0000 C   0  0
   -6.1626   -0.7538    0.0000 C   0  0
   -3.9492    0.8772    0.0000 N   0  0
   -1.2990   -0.7500    0.0000 C   0  0
    0.0000   -1.5000    0.0000 C   0  0
  1  2  1  0
  2  3  1  0
  3  4  2  0
  4  5  1  0
  5  6  2  0
  6  7  1  0
  7  8  2  0
  8  9  1  0
  9 10  1  0
 10 11  1  0
 11 12  2  0
 11 13  1  0
 13 14  2  0
 14 15  1  0
 15 16  1  0
 16 17  1  0
 15 18  2  0
 18 19  1  0
 19 20  1  0
 18 21  1  0
 21 22  1  0
 22 23  1  0
 21 24  2  0
 24 13  1  0
 10 25  2  0
 25  7  1  0
  6 26  1  0
 26 27  2  0
 27  3  1  0
M  END
> <assay_chembl_id>
CHEMBL2330839

> <assay_description>
Cytotoxicity against human LNCAP cells assessed as growth inhibition after 96 hrs by SRB assay

> <document_journal>
J Med Chem

> <molecule_chembl_id>
CHEMBL2324333

> <standard_value>
30

> <IC50_uM>
0.03

> <Activity>
Yes

> <Canonical_Smiles>
COc1ccc(-c2c[nH]c(C(=O)c3cc(OC)c(OC)c(OC)c3)n2)cc1

$$$$

  SciTegic03142313312D

 26 28  0  0  0  0            999 V2000
    3.8983   -0.7459    0.0000 C   0  0
    2.6003   -1.4977    0.0000 O   0  0
    1.2990   -0.7500    0.0000 C   0  0
    1.2990    0.7500    0.0000 C   0  0
    0.0000    1.5000    0.0000 C   0  0
   -0.0031    3.0008    0.0000 C   0  0
    1.2946    3.7531    0.0000 O   0  0
   -1.3039    3.7494    0.0000 C   0  0
   -1.4470    5.2297    0.0000 N   0  0
   -2.9153    5.5365    0.0000 C   0  0
   -3.5304    6.9054    0.0000 C   0  0
   -2.7488    8.1798    0.0000 C   0  0
   -3.4649    9.4979    0.0000 C   0  0
   -4.9644    9.5368    0.0000 C   0  0
   -5.6805   10.8548    0.0000 C   0  0
   -5.7478    8.2576    0.0000 C   0  0
   -5.0318    6.9395    0.0000 C   0  0
   -3.6607    4.2349    0.0000 C   0  0
   -2.6532    3.1236    0.0000 N   0  0
   -1.2990    0.7500    0.0000 C   0  0
   -1.2990   -0.7500    0.0000 C   0  0
   -2.6003   -1.4978    0.0000 O   0  0
   -3.8983   -0.7459    0.0000 C   0  0
    0.0000   -1.5000    0.0000 C   0  0
    0.0031   -3.0008    0.0000 O   0  0
    1.3032   -3.7490    0.0000 C   0  0
  1  2  1  0
  2  3  1  0
  3  4  2  0
  4  5  1  0
  5  6  1  0
  6  7  2  0
  6  8  1  0
  8  9  2  0
  9 10  1  0
 10 11  1  0
 11 12  2  0
 12 13  1  0
 13 14  2  0
 14 15  1  0
 14 16  1  0
 16 17  2  0
 17 11  1  0
 10 18  2  0
 18 19  1  0
 19  8  1  0
  5 20  2  0
 20 21  1  0
 21 22  1  0
 22 23  1  0
 21 24  2  0
 24  3  1  0
 24 25  1  0
 25 26  1  0
M  END
> <assay_chembl_id>
CHEMBL2330839

> <assay_description>
Cytotoxicity against human LNCAP cells assessed as growth inhibition after 96 hrs by SRB assay

> <document_journal>
J Med Chem

> <molecule_chembl_id>
CHEMBL2321902

> <standard_value>
13

> <IC50_uM>
0.013

> <Activity>
Yes

> <Canonical_Smiles>
COc1cc(C(=O)c2nc(-c3ccc(C)cc3)c[nH]2)cc(OC)c1OC

$$$$

  SciTegic03142313312D

 29 31  0  0  0  0            999 V2000
    3.8983   -0.7459    0.0000 C   0  0
    2.6003   -1.4977    0.0000 O   0  0
    1.2990   -0.7500    0.0000 C   0  0
    1.2990    0.7500    0.0000 C   0  0
    0.0000    1.5000    0.0000 C   0  0
   -0.0031    3.0008    0.0000 C   0  0
    1.2946    3.7531    0.0000 O   0  0
   -1.3039    3.7494    0.0000 C   0  0
   -1.4470    5.2297    0.0000 N   0  0
   -2.9153    5.5365    0.0000 C   0  0
   -3.5304    6.9054    0.0000 C   0  0
   -2.7488    8.1798    0.0000 C   0  0
   -3.4649    9.4979    0.0000 C   0  0
   -4.9644    9.5368    0.0000 C   0  0
   -5.6809   10.8555    0.0000 C   0  0
   -4.8983   12.1352    0.0000 F   0  0
   -7.1804   10.8939    0.0000 F   0  0
   -6.3976   12.1732    0.0000 F   0  0
   -5.7478    8.2576    0.0000 C   0  0
   -5.0318    6.9395    0.0000 C   0  0
   -3.6607    4.2349    0.0000 C   0  0
   -2.6532    3.1236    0.0000 N   0  0
   -1.2990    0.7500    0.0000 C   0  0
   -1.2990   -0.7500    0.0000 C   0  0
   -2.6003   -1.4978    0.0000 O   0  0
   -3.8983   -0.7459    0.0000 C   0  0
    0.0000   -1.5000    0.0000 C   0  0
    0.0031   -3.0008    0.0000 O   0  0
    1.3032   -3.7490    0.0000 C   0  0
  1  2  1  0
  2  3  1  0
  3  4  2  0
  4  5  1  0
  5  6  1  0
  6  7  2  0
  6  8  1  0
  8  9  2  0
  9 10  1  0
 10 11  1  0
 11 12  2  0
 12 13  1  0
 13 14  2  0
 14 15  1  0
 15 16  1  0
 15 17  1  0
 15 18  1  0
 14 19  1  0
 19 20  2  0
 20 11  1  0
 10 21  2  0
 21 22  1  0
 22  8  1  0
  5 23  2  0
 23 24  1  0
 24 25  1  0
 25 26  1  0
 24 27  2  0
 27  3  1  0
 27 28  1  0
 28 29  1  0
M  END
> <assay_chembl_id>
CHEMBL2330839

> <assay_description>
Cytotoxicity against human LNCAP cells assessed as growth inhibition after 96 hrs by SRB assay

> <document_journal>
J Med Chem

> <molecule_chembl_id>
CHEMBL2323924

> <standard_value>
47

> <IC50_uM>
0.047

> <Activity>
Yes

> <Canonical_Smiles>
COc1cc(C(=O)c2nc(-c3ccc(C(F)(F)F)cc3)c[nH]2)cc(OC)c1OC

$$$$

  SciTegic03142313312D

 26 28  0  0  0  0            999 V2000
    3.8983   -0.7459    0.0000 C   0  0
    2.6003   -1.4977    0.0000 O   0  0
    1.2990   -0.7500    0.0000 C   0  0
    1.2990    0.7500    0.0000 C   0  0
    0.0000    1.5000    0.0000 C   0  0
   -0.0031    3.0008    0.0000 C   0  0
    1.2946    3.7531    0.0000 O   0  0
   -1.3039    3.7494    0.0000 C   0  0
   -1.4470    5.2297    0.0000 N   0  0
   -2.9153    5.5365    0.0000 C   0  0
   -3.5304    6.9054    0.0000 C   0  0
   -2.7488    8.1798    0.0000 C   0  0
   -3.4649    9.4979    0.0000 C   0  0
   -4.9644    9.5368    0.0000 C   0  0
   -5.6805   10.8548    0.0000 Br  0  0
   -5.7478    8.2576    0.0000 C   0  0
   -5.0318    6.9395    0.0000 C   0  0
   -3.6607    4.2349    0.0000 C   0  0
   -2.6532    3.1236    0.0000 N   0  0
   -1.2990    0.7500    0.0000 C   0  0
   -1.2990   -0.7500    0.0000 C   0  0
   -2.6003   -1.4978    0.0000 O   0  0
   -3.8983   -0.7459    0.0000 C   0  0
    0.0000   -1.5000    0.0000 C   0  0
    0.0031   -3.0008    0.0000 O   0  0
    1.3032   -3.7490    0.0000 C   0  0
  1  2  1  0
  2  3  1  0
  3  4  2  0
  4  5  1  0
  5  6  1  0
  6  7  2  0
  6  8  1  0
  8  9  2  0
  9 10  1  0
 10 11  1  0
 11 12  2  0
 12 13  1  0
 13 14  2  0
 14 15  1  0
 14 16  1  0
 16 17  2  0
 17 11  1  0
 10 18  2  0
 18 19  1  0
 19  8  1  0
  5 20  2  0
 20 21  1  0
 21 22  1  0
 22 23  1  0
 21 24  2  0
 24  3  1  0
 24 25  1  0
 25 26  1  0
M  END
> <assay_chembl_id>
CHEMBL2330839

> <assay_description>
Cytotoxicity against human LNCAP cells assessed as growth inhibition after 96 hrs by SRB assay

> <document_journal>
J Med Chem

> <molecule_chembl_id>
CHEMBL2323923

> <standard_value>
15

> <IC50_uM>
0.015

> <Activity>
Yes

> <Canonical_Smiles>
COc1cc(C(=O)c2nc(-c3ccc(Br)cc3)c[nH]2)cc(OC)c1OC

$$$$

  SciTegic03142313312D

 26 28  0  0  0  0            999 V2000
    3.8983   -0.7459    0.0000 C   0  0
    2.6003   -1.4977    0.0000 O   0  0
    1.2990   -0.7500    0.0000 C   0  0
    1.2990    0.7500    0.0000 C   0  0
    0.0000    1.5000    0.0000 C   0  0
   -0.0031    3.0008    0.0000 C   0  0
    1.2946    3.7531    0.0000 O   0  0
   -1.3039    3.7494    0.0000 C   0  0
   -1.4470    5.2297    0.0000 N   0  0
   -2.9153    5.5365    0.0000 C   0  0
   -3.5304    6.9054    0.0000 C   0  0
   -2.7488    8.1798    0.0000 C   0  0
   -3.4649    9.4979    0.0000 C   0  0
   -4.9644    9.5368    0.0000 C   0  0
   -5.6805   10.8548    0.0000 Cl  0  0
   -5.7478    8.2576    0.0000 C   0  0
   -5.0318    6.9395    0.0000 C   0  0
   -3.6607    4.2349    0.0000 C   0  0
   -2.6532    3.1236    0.0000 N   0  0
   -1.2990    0.7500    0.0000 C   0  0
   -1.2990   -0.7500    0.0000 C   0  0
   -2.6003   -1.4978    0.0000 O   0  0
   -3.8983   -0.7459    0.0000 C   0  0
    0.0000   -1.5000    0.0000 C   0  0
    0.0031   -3.0008    0.0000 O   0  0
    1.3032   -3.7490    0.0000 C   0  0
  1  2  1  0
  2  3  1  0
  3  4  2  0
  4  5  1  0
  5  6  1  0
  6  7  2  0
  6  8  1  0
  8  9  2  0
  9 10  1  0
 10 11  1  0
 11 12  2  0
 12 13  1  0
 13 14  2  0
 14 15  1  0
 14 16  1  0
 16 17  2  0
 17 11  1  0
 10 18  2  0
 18 19  1  0
 19  8  1  0
  5 20  2  0
 20 21  1  0
 21 22  1  0
 22 23  1  0
 21 24  2  0
 24  3  1  0
 24 25  1  0
 25 26  1  0
M  END
> <assay_chembl_id>
CHEMBL2330839

> <assay_description>
Cytotoxicity against human LNCAP cells assessed as growth inhibition after 96 hrs by SRB assay

> <document_journal>
J Med Chem

> <molecule_chembl_id>
CHEMBL2323922

> <standard_value>
22

> <IC50_uM>
0.022

> <Activity>
Yes

> <Canonical_Smiles>
COc1cc(C(=O)c2nc(-c3ccc(Cl)cc3)c[nH]2)cc(OC)c1OC

$$$$

  SciTegic03142313312D

 26 28  0  0  0  0            999 V2000
    3.8983   -0.7459    0.0000 C   0  0
    2.6003   -1.4977    0.0000 O   0  0
    1.2990   -0.7500    0.0000 C   0  0
    1.2990    0.7500    0.0000 C   0  0
    0.0000    1.5000    0.0000 C   0  0
   -0.0031    3.0008    0.0000 C   0  0
    1.2946    3.7531    0.0000 O   0  0
   -1.3039    3.7494    0.0000 C   0  0
   -1.4470    5.2297    0.0000 N   0  0
   -2.9153    5.5365    0.0000 C   0  0
   -3.5304    6.9054    0.0000 C   0  0
   -2.7488    8.1798    0.0000 C   0  0
   -3.4649    9.4979    0.0000 C   0  0
   -4.9644    9.5368    0.0000 C   0  0
   -5.6805   10.8548    0.0000 F   0  0
   -5.7478    8.2576    0.0000 C   0  0
   -5.0318    6.9395    0.0000 C   0  0
   -3.6607    4.2349    0.0000 C   0  0
   -2.6532    3.1236    0.0000 N   0  0
   -1.2990    0.7500    0.0000 C   0  0
   -1.2990   -0.7500    0.0000 C   0  0
   -2.6003   -1.4978    0.0000 O   0  0
   -3.8983   -0.7459    0.0000 C   0  0
    0.0000   -1.5000    0.0000 C   0  0
    0.0031   -3.0008    0.0000 O   0  0
    1.3032   -3.7490    0.0000 C   0  0
  1  2  1  0
  2  3  1  0
  3  4  2  0
  4  5  1  0
  5  6  1  0
  6  7  2  0
  6  8  1  0
  8  9  2  0
  9 10  1  0
 10 11  1  0
 11 12  2  0
 12 13  1  0
 13 14  2  0
 14 15  1  0
 14 16  1  0
 16 17  2  0
 17 11  1  0
 10 18  2  0
 18 19  1  0
 19  8  1  0
  5 20  2  0
 20 21  1  0
 21 22  1  0
 22 23  1  0
 21 24  2  0
 24  3  1  0
 24 25  1  0
 25 26  1  0
M  END
> <assay_chembl_id>
CHEMBL2330839

> <assay_description>
Cytotoxicity against human LNCAP cells assessed as growth inhibition after 96 hrs by SRB assay

> <document_journal>
J Med Chem

> <molecule_chembl_id>
CHEMBL2323921

> <standard_value>
114

> <IC50_uM>
0.114

> <Activity>
Yes

> <Canonical_Smiles>
COc1cc(C(=O)c2nc(-c3ccc(F)cc3)c[nH]2)cc(OC)c1OC

$$$$

  SciTegic03142313312D

 25 27  0  0  0  0            999 V2000
    3.8983   -0.7459    0.0000 C   0  0
    2.6003   -1.4977    0.0000 O   0  0
    1.2990   -0.7500    0.0000 C   0  0
    1.2990    0.7500    0.0000 C   0  0
    0.0000    1.5000    0.0000 C   0  0
   -0.0031    3.0008    0.0000 C   0  0
    1.2946    3.7531    0.0000 O   0  0
   -1.3039    3.7494    0.0000 C   0  0
   -1.4470    5.2297    0.0000 N   0  0
   -2.9153    5.5365    0.0000 C   0  0
   -3.5304    6.9054    0.0000 C   0  0
   -2.7488    8.1798    0.0000 C   0  0
   -3.4649    9.4979    0.0000 C   0  0
   -4.9644    9.5368    0.0000 C   0  0
   -5.7478    8.2576    0.0000 C   0  0
   -5.0318    6.9395    0.0000 C   0  0
   -3.6607    4.2349    0.0000 C   0  0
   -2.6532    3.1236    0.0000 N   0  0
   -1.2990    0.7500    0.0000 C   0  0
   -1.2990   -0.7500    0.0000 C   0  0
   -2.6003   -1.4978    0.0000 O   0  0
   -3.8983   -0.7459    0.0000 C   0  0
    0.0000   -1.5000    0.0000 C   0  0
    0.0031   -3.0008    0.0000 O   0  0
    1.3032   -3.7490    0.0000 C   0  0
  1  2  1  0
  2  3  1  0
  3  4  2  0
  4  5  1  0
  5  6  1  0
  6  7  2  0
  6  8  1  0
  8  9  2  0
  9 10  1  0
 10 11  1  0
 11 12  2  0
 12 13  1  0
 13 14  2  0
 14 15  1  0
 15 16  2  0
 16 11  1  0
 10 17  2  0
 17 18  1  0
 18  8  1  0
  5 19  2  0
 19 20  1  0
 20 21  1  0
 21 22  1  0
 20 23  2  0
 23  3  1  0
 23 24  1  0
 24 25  1  0
M  END
> <assay_chembl_id>
CHEMBL2330839

> <assay_description>
Cytotoxicity against human LNCAP cells assessed as growth inhibition after 96 hrs by SRB assay

> <document_journal>
J Med Chem

> <molecule_chembl_id>
CHEMBL2323920

> <standard_value>
6

> <IC50_uM>
0.006

> <Activity>
Yes

> <Canonical_Smiles>
COc1cc(C(=O)c2nc(-c3ccccc3)c[nH]2)cc(OC)c1OC

$$$$

  SciTegic03142313312D

 29 31  0  0  0  0            999 V2000
    3.8983   -0.7459    0.0000 C   0  0
    2.6003   -1.4977    0.0000 O   0  0
    1.2990   -0.7500    0.0000 C   0  0
    1.2990    0.7500    0.0000 C   0  0
    0.0000    1.5000    0.0000 C   0  0
   -0.0031    3.0008    0.0000 C   0  0
    1.2946    3.7531    0.0000 O   0  0
   -1.3039    3.7494    0.0000 C   0  0
   -1.4470    5.2297    0.0000 C   0  0
   -2.9153    5.5365    0.0000 N   0  0
   -3.6607    4.2349    0.0000 C   0  0
   -5.1527    4.0728    0.0000 C   0  0
   -6.1233    5.2100    0.0000 C   0  0
   -7.5981    4.9362    0.0000 C   0  0
   -8.0984    3.5221    0.0000 C   0  0
   -9.5740    3.2482    0.0000 C   0  0
  -10.5492    4.3880    0.0000 C   0  0
  -10.0739    1.8340    0.0000 C   0  0
  -11.0487    2.9738    0.0000 C   0  0
   -7.1240    2.3818    0.0000 C   0  0
   -5.6491    2.6555    0.0000 C   0  0
   -2.6532    3.1236    0.0000 N   0  0
   -1.2990    0.7500    0.0000 C   0  0
   -1.2990   -0.7500    0.0000 C   0  0
   -2.6003   -1.4978    0.0000 O   0  0
   -3.8983   -0.7459    0.0000 C   0  0
    0.0000   -1.5000    0.0000 C   0  0
    0.0031   -3.0008    0.0000 O   0  0
    1.3032   -3.7490    0.0000 C   0  0
  1  2  1  0
  2  3  1  0
  3  4  2  0
  4  5  1  0
  5  6  1  0
  6  7  2  0
  6  8  1  0
  8  9  2  0
  9 10  1  0
 10 11  1  0
 11 12  1  0
 12 13  2  0
 13 14  1  0
 14 15  2  0
 15 16  1  0
 16 17  1  0
 16 18  1  0
 16 19  1  0
 15 20  1  0
 20 21  2  0
 21 12  1  0
 11 22  2  0
 22  8  1  0
  5 23  2  0
 23 24  1  0
 24 25  1  0
 25 26  1  0
 24 27  2  0
 27  3  1  0
 27 28  1  0
 28 29  1  0
M  END
> <assay_chembl_id>
CHEMBL2330839

> <assay_description>
Cytotoxicity against human LNCAP cells assessed as growth inhibition after 96 hrs by SRB assay

> <document_journal>
J Med Chem

> <molecule_chembl_id>
CHEMBL2323906

> <standard_value>
423

> <IC50_uM>
0.423

> <Activity>
Yes

> <Canonical_Smiles>
COc1cc(C(=O)c2c[nH]c(-c3ccc(C(C)(C)C)cc3)n2)cc(OC)c1OC

$$$$

  SciTegic03142313312D

 28 30  0  0  0  0            999 V2000
    3.8983   -0.7459    0.0000 C   0  0
    2.6003   -1.4977    0.0000 O   0  0
    1.2990   -0.7500    0.0000 C   0  0
    1.2990    0.7500    0.0000 C   0  0
    0.0000    1.5000    0.0000 C   0  0
   -0.0031    3.0008    0.0000 C   0  0
    1.2946    3.7531    0.0000 O   0  0
   -1.3039    3.7494    0.0000 C   0  0
   -1.4470    5.2297    0.0000 C   0  0
   -2.9153    5.5365    0.0000 N   0  0
   -3.6607    4.2349    0.0000 C   0  0
   -5.1527    4.0728    0.0000 C   0  0
   -6.1233    5.2100    0.0000 C   0  0
   -7.5981    4.9362    0.0000 C   0  0
   -8.0984    3.5221    0.0000 C   0  0
   -9.5735    3.2452    0.0000 C   0  0
  -10.0718    1.8304    0.0000 C   0  0
  -10.5499    4.3839    0.0000 C   0  0
   -7.1240    2.3818    0.0000 C   0  0
   -5.6491    2.6555    0.0000 C   0  0
   -2.6532    3.1236    0.0000 N   0  0
   -1.2990    0.7500    0.0000 C   0  0
   -1.2990   -0.7500    0.0000 C   0  0
   -2.6003   -1.4978    0.0000 O   0  0
   -3.8983   -0.7459    0.0000 C   0  0
    0.0000   -1.5000    0.0000 C   0  0
    0.0031   -3.0008    0.0000 O   0  0
    1.3032   -3.7490    0.0000 C   0  0
  1  2  1  0
  2  3  1  0
  3  4  2  0
  4  5  1  0
  5  6  1  0
  6  7  2  0
  6  8  1  0
  8  9  2  0
  9 10  1  0
 10 11  1  0
 11 12  1  0
 12 13  2  0
 13 14  1  0
 14 15  2  0
 15 16  1  0
 16 17  1  0
 16 18  1  0
 15 19  1  0
 19 20  2  0
 20 12  1  0
 11 21  2  0
 21  8  1  0
  5 22  2  0
 22 23  1  0
 23 24  1  0
 24 25  1  0
 23 26  2  0
 26  3  1  0
 26 27  1  0
 27 28  1  0
M  END
> <assay_chembl_id>
CHEMBL2330839

> <assay_description>
Cytotoxicity against human LNCAP cells assessed as growth inhibition after 96 hrs by SRB assay

> <document_journal>
J Med Chem

> <molecule_chembl_id>
CHEMBL2323905

> <standard_value>
171

> <IC50_uM>
0.171

> <Activity>
Yes

> <Canonical_Smiles>
COc1cc(C(=O)c2c[nH]c(-c3ccc(C(C)C)cc3)n2)cc(OC)c1OC

$$$$

  SciTegic03142313312D

 27 29  0  0  0  0            999 V2000
    2.5951   -3.0031    0.0000 C   0  0
    2.5973   -1.5031    0.0000 C   0  0
    1.2990   -0.7500    0.0000 C   0  0
    1.2990    0.7500    0.0000 C   0  0
    0.0000    1.5000    0.0000 C   0  0
   -1.2990    0.7500    0.0000 C   0  0
   -2.5987    1.5004    0.0000 C   0  0
   -2.7390    2.9810    0.0000 N   0  0
   -4.2067    3.2905    0.0000 C   0  0
   -4.8211    4.6570    0.0000 C   0  0
   -3.9435    5.8735    0.0000 O   0  0
   -6.3142    4.8094    0.0000 C   0  0
   -6.9313    6.1766    0.0000 C   0  0
   -8.4239    6.3258    0.0000 C   0  0
   -9.0384    7.6950    0.0000 O   0  0
   -8.1612    8.9118    0.0000 C   0  0
   -9.2994    5.1078    0.0000 C   0  0
  -10.7931    5.2541    0.0000 O   0  0
  -11.6669    4.0348    0.0000 C   0  0
   -8.6823    3.7406    0.0000 C   0  0
   -9.5558    2.5202    0.0000 O   0  0
   -8.9369    1.1538    0.0000 C   0  0
   -7.1898    3.5914    0.0000 C   0  0
   -4.9546    1.9903    0.0000 C   0  0
   -3.9492    0.8772    0.0000 N   0  0
   -1.2990   -0.7500    0.0000 C   0  0
    0.0000   -1.5000    0.0000 C   0  0
  1  2  1  0
  2  3  1  0
  3  4  2  0
  4  5  1  0
  5  6  2  0
  6  7  1  0
  7  8  2  0
  8  9  1  0
  9 10  1  0
 10 11  2  0
 10 12  1  0
 12 13  2  0
 13 14  1  0
 14 15  1  0
 15 16  1  0
 14 17  2  0
 17 18  1  0
 18 19  1  0
 17 20  1  0
 20 21  1  0
 21 22  1  0
 20 23  2  0
 23 12  1  0
  9 24  2  0
 24 25  1  0
 25  7  1  0
  6 26  1  0
 26 27  2  0
 27  3  1  0
M  END
> <assay_chembl_id>
CHEMBL2330839

> <assay_description>
Cytotoxicity against human LNCAP cells assessed as growth inhibition after 96 hrs by SRB assay

> <document_journal>
J Med Chem

> <molecule_chembl_id>
CHEMBL2323904

> <standard_value>
9

> <IC50_uM>
0.009

> <Activity>
Yes

> <Canonical_Smiles>
CCc1ccc(-c2nc(C(=O)c3cc(OC)c(OC)c(OC)c3)c[nH]2)cc1

$$$$

  SciTegic03142313312D

 30 33  0  0  0  0            999 V2000
    3.8983   -0.7459    0.0000 C   0  0
    2.6003   -1.4977    0.0000 O   0  0
    1.2990   -0.7500    0.0000 C   0  0
    1.2990    0.7500    0.0000 C   0  0
    0.0000    1.5000    0.0000 C   0  0
   -1.2990    0.7500    0.0000 C   0  0
   -1.2990   -0.7500    0.0000 C   0  0
    0.0000   -1.5000    0.0000 C   0  0
    0.0031   -3.0008    0.0000 O   0  0
    1.3032   -3.7490    0.0000 C   0  0
   -2.5981   -1.5000    0.0000 C   0  0
   -3.8971   -0.7500    0.0000 C   0  0
   -3.8971    0.7500    0.0000 N   0  0
   -5.1968    1.5004    0.0000 C   0  0
   -6.4971    0.7525    0.0000 C   0  0
   -7.7950    1.5045    0.0000 C   0  0
   -7.7926    3.0045    0.0000 C   0  0
   -9.0896    3.7597    0.0000 C   0  0
  -10.3912    3.0140    0.0000 O   0  0
   -9.0851    5.2605    0.0000 N   0  0
  -10.3821    6.0156    0.0000 C   0  0
  -10.3798    7.5157    0.0000 C   0  0
  -11.6776    8.2677    0.0000 C   0  0
  -12.9779    7.5198    0.0000 C   0  0
  -12.9803    6.0198    0.0000 C   0  0
  -14.2805    5.2719    0.0000 C   0  0
  -11.6825    5.2677    0.0000 N   0  0
   -6.4924    3.7525    0.0000 C   0  0
   -5.1945    3.0004    0.0000 N   0  0
   -2.5981    1.5000    0.0000 C   0  0
  1  2  1  0
  2  3  1  0
  3  4  2  0
  4  5  1  0
  5  6  2  0
  6  7  1  0
  7  8  2  0
  8  3  1  0
  8  9  1  0
  9 10  1  0
  7 11  1  0
 11 12  1  0
 12 13  1  0
 13 14  1  0
 14 15  2  0
 15 16  1  0
 16 17  2  0
 17 18  1  0
 18 19  2  0
 18 20  1  0
 20 21  1  0
 21 22  2  0
 22 23  1  0
 23 24  2  0
 24 25  1  0
 25 26  1  0
 25 27  2  0
 27 21  1  0
 17 28  1  0
 28 29  2  0
 29 14  1  0
 13 30  1  0
 30  6  1  0
M  END
> <assay_chembl_id>
CHEMBL2340541

> <assay_description>
Cytotoxicity against human androgen-dependent LNCAP cells after 6 days by MTS/PMS assay

> <document_journal>
J Med Chem

> <molecule_chembl_id>
CHEMBL2336980

> <standard_value>
680

> <IC50_uM>
0.68

> <Activity>
Yes

> <Canonical_Smiles>
COc1ccc2c(c1OC)CCN(c1ccc(C(=O)Nc3cccc(C)n3)cn1)C2

$$$$

  SciTegic03142313312D

 28 30  0  0  0  0            999 V2000
    3.8912   -5.2570    0.0000 C   0  0
    3.8933   -3.7570    0.0000 C   0  0
    2.5951   -3.0039    0.0000 S   0  0
    1.2948   -3.7516    0.0000 O   0  0
    2.5923   -4.5039    0.0000 O   0  0
    2.5973   -1.5031    0.0000 N   0  0
    1.2990   -0.7500    0.0000 C   0  0
    1.2990    0.7500    0.0000 C   0  0
    0.0000    1.5000    0.0000 C   0  0
   -1.2990    0.7500    0.0000 C   0  0
   -1.2990   -0.7500    0.0000 C   0  0
   -2.5987   -1.5004    0.0000 C   0  0
   -2.5964   -3.0004    0.0000 C   0  0
   -3.8943   -3.7525    0.0000 C   0  0
   -3.8919   -5.2525    0.0000 O   0  0
   -5.1945   -3.0046    0.0000 N   0  0
   -6.4930   -3.7570    0.0000 C   0  0
   -6.4931   -5.2571    0.0000 C   0  0
   -7.7921   -6.0071    0.0000 C   0  0
   -9.0912   -5.2571    0.0000 C   0  0
  -10.3902   -6.0071    0.0000 F   0  0
   -9.0912   -3.7571    0.0000 C   0  0
  -10.3902   -3.0071    0.0000 Cl  0  0
   -7.7921   -3.0071    0.0000 C   0  0
   -5.1969   -1.5046    0.0000 N   0  0
   -3.8990   -0.7525    0.0000 C   0  0
   -3.9015    0.7475    0.0000 C   0  0
    0.0000   -1.5000    0.0000 C   0  0
  1  2  1  0
  2  3  1  0
  3  4  2  0
  3  5  2  0
  3  6  1  0
  6  7  1  0
  7  8  2  0
  8  9  1  0
  9 10  2  0
 10 11  1  0
 11 12  1  0
 12 13  2  0
 13 14  1  0
 14 15  2  0
 14 16  1  0
 16 17  1  0
 17 18  2  0
 18 19  1  0
 19 20  2  0
 20 21  1  0
 20 22  1  0
 22 23  1  0
 22 24  2  0
 24 17  1  0
 16 25  1  0
 25 26  2  0
 26 12  1  0
 26 27  1  0
 11 28  2  0
 28  7  1  0
M  END
> <assay_chembl_id>
CHEMBL2399206

> <assay_description>
Cytotoxicity against human LNCAP cells assessed as cell viability after 2 days by cell counting method

> <document_journal>
Bioorg Med Chem Lett

> <molecule_chembl_id>
CHEMBL2397336

> <standard_value>
26650

> <IC50_uM>
26.65

> <Activity>
No

> <Canonical_Smiles>
CCS(=O)(=O)Nc1cccc(-c2cc(=O)n(-c3ccc(F)c(Cl)c3)nc2C)c1

$$$$

  SciTegic03142313312D

 28 30  0  0  0  0            999 V2000
    3.8912   -5.2570    0.0000 C   0  0
    3.8933   -3.7570    0.0000 C   0  0
    2.5951   -3.0039    0.0000 S   0  0
    1.2948   -3.7516    0.0000 O   0  0
    2.5923   -4.5039    0.0000 O   0  0
    2.5973   -1.5031    0.0000 N   0  0
    1.2990   -0.7500    0.0000 C   0  0
    1.2990    0.7500    0.0000 C   0  0
    0.0000    1.5000    0.0000 C   0  0
   -1.2990    0.7500    0.0000 C   0  0
   -1.2990   -0.7500    0.0000 C   0  0
   -2.5987   -1.5004    0.0000 C   0  0
   -2.5964   -3.0004    0.0000 C   0  0
   -3.8943   -3.7525    0.0000 C   0  0
   -3.8919   -5.2525    0.0000 O   0  0
   -5.1945   -3.0046    0.0000 N   0  0
   -6.4930   -3.7570    0.0000 C   0  0
   -6.4931   -5.2571    0.0000 C   0  0
   -7.7921   -6.0071    0.0000 C   0  0
   -7.7921   -7.5071    0.0000 Cl  0  0
   -9.0912   -5.2571    0.0000 C   0  0
   -9.0912   -3.7571    0.0000 C   0  0
  -10.3902   -3.0071    0.0000 Cl  0  0
   -7.7921   -3.0071    0.0000 C   0  0
   -5.1969   -1.5046    0.0000 N   0  0
   -3.8990   -0.7525    0.0000 C   0  0
   -3.9015    0.7475    0.0000 C   0  0
    0.0000   -1.5000    0.0000 C   0  0
  1  2  1  0
  2  3  1  0
  3  4  2  0
  3  5  2  0
  3  6  1  0
  6  7  1  0
  7  8  2  0
  8  9  1  0
  9 10  2  0
 10 11  1  0
 11 12  1  0
 12 13  2  0
 13 14  1  0
 14 15  2  0
 14 16  1  0
 16 17  1  0
 17 18  2  0
 18 19  1  0
 19 20  1  0
 19 21  2  0
 21 22  1  0
 22 23  1  0
 22 24  2  0
 24 17  1  0
 16 25  1  0
 25 26  2  0
 26 12  1  0
 26 27  1  0
 11 28  2  0
 28  7  1  0
M  END
> <assay_chembl_id>
CHEMBL2399206

> <assay_description>
Cytotoxicity against human LNCAP cells assessed as cell viability after 2 days by cell counting method

> <document_journal>
Bioorg Med Chem Lett

> <molecule_chembl_id>
CHEMBL2397335

> <standard_value>
22930

> <IC50_uM>
22.93

> <Activity>
No

> <Canonical_Smiles>
CCS(=O)(=O)Nc1cccc(-c2cc(=O)n(-c3cc(Cl)cc(Cl)c3)nc2C)c1

$$$$

  SciTegic03142313312D

 28 30  0  0  0  0            999 V2000
    3.8912   -5.2570    0.0000 C   0  0
    3.8933   -3.7570    0.0000 C   0  0
    2.5951   -3.0039    0.0000 S   0  0
    1.2948   -3.7516    0.0000 O   0  0
    2.5923   -4.5039    0.0000 O   0  0
    2.5973   -1.5031    0.0000 N   0  0
    1.2990   -0.7500    0.0000 C   0  0
    1.2990    0.7500    0.0000 C   0  0
    0.0000    1.5000    0.0000 C   0  0
   -1.2990    0.7500    0.0000 C   0  0
   -1.2990   -0.7500    0.0000 C   0  0
   -2.5987   -1.5004    0.0000 C   0  0
   -2.5964   -3.0004    0.0000 C   0  0
   -3.8943   -3.7525    0.0000 C   0  0
   -3.8919   -5.2525    0.0000 O   0  0
   -5.1945   -3.0046    0.0000 N   0  0
   -6.4930   -3.7570    0.0000 C   0  0
   -6.4931   -5.2571    0.0000 C   0  0
   -7.7921   -6.0071    0.0000 C   0  0
   -9.0912   -5.2571    0.0000 C   0  0
  -10.3909   -6.0075    0.0000 C   0  0
  -11.6900   -6.7575    0.0000 N   0  0
   -9.0912   -3.7571    0.0000 C   0  0
   -7.7921   -3.0071    0.0000 C   0  0
   -5.1969   -1.5046    0.0000 N   0  0
   -3.8990   -0.7525    0.0000 C   0  0
   -3.9015    0.7475    0.0000 C   0  0
    0.0000   -1.5000    0.0000 C   0  0
  1  2  1  0
  2  3  1  0
  3  4  2  0
  3  5  2  0
  3  6  1  0
  6  7  1  0
  7  8  2  0
  8  9  1  0
  9 10  2  0
 10 11  1  0
 11 12  1  0
 12 13  2  0
 13 14  1  0
 14 15  2  0
 14 16  1  0
 16 17  1  0
 17 18  2  0
 18 19  1  0
 19 20  2  0
 20 21  1  0
 21 22  3  0
 20 23  1  0
 23 24  2  0
 24 17  1  0
 16 25  1  0
 25 26  2  0
 26 12  1  0
 26 27  1  0
 11 28  2  0
 28  7  1  0
M  END
> <assay_chembl_id>
CHEMBL2399206

> <assay_description>
Cytotoxicity against human LNCAP cells assessed as cell viability after 2 days by cell counting method

> <document_journal>
Bioorg Med Chem Lett

> <molecule_chembl_id>
CHEMBL2397333

> <standard_value>
39020

> <IC50_uM>
39.02

> <Activity>
No

> <Canonical_Smiles>
CCS(=O)(=O)Nc1cccc(-c2cc(=O)n(-c3ccc(C#N)cc3)nc2C)c1

$$$$

  SciTegic03142313312D

 34 38  0  0  0  0            999 V2000
   -2.1567   -3.7722    0.0000 C   0  0
   -0.6890   -4.0818    0.0000 C   0  0
   -0.2237   -5.5078    0.0000 O   0  0
    0.3114   -2.9665    0.0000 N   0  0
    1.8032   -3.1233    0.0000 C   0  0
    2.4133   -1.7530    0.0000 C   0  0
    3.8794   -1.4442    0.0000 C   0  0
    4.8823   -2.5608    0.0000 C   0  0
    6.3500   -2.2471    0.0000 C   0  0
    6.8128   -0.8202    0.0000 O   0  0
    7.3546   -3.3610    0.0000 O   0  0
    4.4177   -3.9879    0.0000 C   0  0
    5.4184   -5.1053    0.0000 C   0  0
    4.9511   -6.5307    0.0000 C   0  0
    3.4830   -6.8387    0.0000 C   0  0
    2.4823   -5.7213    0.0000 C   0  0
    2.9496   -4.2959    0.0000 C   0  0
    1.1110   -6.3272    0.0000 O   0  0
    1.2638   -7.8194    0.0000 C   0  0
    2.7302   -8.1352    0.0000 O   0  0
    1.2990   -0.7500    0.0000 C   0  0
    1.2990    0.7500    0.0000 C   0  0
    0.0000    1.5000    0.0000 C   0  0
   -0.0031    3.0008    0.0000 O   0  0
   -1.3039    3.7494    0.0000 C   0  0
   -1.3070    5.2502    0.0000 C   0  0
   -2.6061    6.0003    0.0000 C   0  0
   -2.6061    7.5003    0.0000 C   0  0
   -1.3071    8.2503    0.0000 C   0  0
   -0.0080    7.5003    0.0000 C   0  0
   -0.0080    6.0003    0.0000 C   0  0
   -1.2990    0.7500    0.0000 C   0  0
   -1.2990   -0.7500    0.0000 C   0  0
    0.0000   -1.5000    0.0000 C   0  0
  1  2  1  0
  2  3  2  0
  2  4  1  0
  4  5  1  0
  5  6  2  0
  6  7  1  0
  7  8  2  0
  8  9  1  0
  9 10  2  0
  9 11  1  0
  8 12  1  0
 12 13  2  0
 13 14  1  0
 14 15  2  0
 15 16  1  0
 16 17  2  0
 17 12  1  0
 16 18  1  0
 18 19  1  0
 19 20  1  0
 20 15  1  0
  6 21  1  0
 21 22  2  0
 22 23  1  0
 23 24  1  0
 24 25  1  0
 25 26  1  0
 26 27  2  0
 27 28  1  0
 28 29  2  0
 29 30  1  0
 30 31  2  0
 31 26  1  0
 23 32  2  0
 32 33  1  0
 33 34  2  0
 34 21  1  0
 34  4  1  0
M  END
> <assay_chembl_id>
CHEMBL2423522

> <assay_description>
Cytotoxicity against human LNCAP cells assessed as cell viability after 72 hrs by MTT assay

> <document_journal>
Bioorg Med Chem

> <molecule_chembl_id>
CHEMBL2417641

> <standard_value>
99100

> <IC50_uM>
99.1

> <Activity>
No

> <Canonical_Smiles>
CC(=O)n1cc(/C=C(/C(=O)O)c2ccc3c(c2)OCO3)c2cc(OCc3ccccc3)ccc21

$$$$

  SciTegic03142313312D

 33 36  0  0  0  0            999 V2000
   -5.7069   -9.6539    0.0000 C   0  0
   -4.2401   -9.9681    0.0000 O   0  0
   -3.2334   -8.8550    0.0000 C   0  0
   -1.7662   -9.1671    0.0000 C   0  0
   -0.7624   -8.0525    0.0000 C   0  0
   -1.2256   -6.6258    0.0000 C   0  0
   -0.2234   -5.5086    0.0000 C   0  0
   -0.6890   -4.0818    0.0000 C   0  0
   -2.1547   -3.7712    0.0000 C   0  0
   -3.2669   -4.7776    0.0000 C   0  0
   -4.5678   -4.0309    0.0000 N   0  0
   -5.9339   -4.6462    0.0000 C   0  0
   -7.1509   -3.7695    0.0000 C   0  0
   -6.0851   -6.1386    0.0000 O   0  0
   -4.2595   -2.5637    0.0000 C   0  0
   -5.1442   -1.3524    0.0000 C   0  0
   -4.5375    0.0195    0.0000 C   0  0
   -3.0461    0.1799    0.0000 C   0  0
   -2.4362    1.5513    0.0000 O   0  0
   -0.9438    1.7097    0.0000 C   0  0
   -0.3339    3.0811    0.0000 C   0  0
    1.1575    3.2416    0.0000 C   0  0
    1.7642    4.6134    0.0000 C   0  0
    0.8796    5.8248    0.0000 C   0  0
   -0.6118    5.6643    0.0000 C   0  0
   -1.2186    4.2925    0.0000 C   0  0
   -2.1614   -1.0314    0.0000 C   0  0
   -2.7681   -2.4032    0.0000 C   0  0
    1.2457   -5.8153    0.0000 C   0  0
    2.2461   -4.6976    0.0000 O   0  0
    1.7140   -7.2404    0.0000 O   0  0
   -2.6928   -6.3138    0.0000 C   0  0
   -3.6967   -7.4283    0.0000 C   0  0
  1  2  1  0
  2  3  1  0
  3  4  2  0
  4  5  1  0
  5  6  2  0
  6  7  1  0
  7  8  2  0
  8  9  1  0
  9 10  2  0
 10 11  1  0
 11 12  1  0
 12 13  1  0
 12 14  2  0
 11 15  1  0
 15 16  2  0
 16 17  1  0
 17 18  2  0
 18 19  1  0
 19 20  1  0
 20 21  1  0
 21 22  2  0
 22 23  1  0
 23 24  2  0
 24 25  1  0
 25 26  2  0
 26 21  1  0
 18 27  1  0
 27 28  2  0
 28  9  1  0
 28 15  1  0
  7 29  1  0
 29 30  2  0
 29 31  1  0
  6 32  1  0
 32 33  2  0
 33  3  1  0
M  END
> <assay_chembl_id>
CHEMBL2423522

> <assay_description>
Cytotoxicity against human LNCAP cells assessed as cell viability after 72 hrs by MTT assay

> <document_journal>
Bioorg Med Chem

> <molecule_chembl_id>
CHEMBL2417658

> <standard_value>
85000

> <IC50_uM>
85

> <Activity>
No

> <Canonical_Smiles>
COc1ccc(/C(=C\c2cn(C(C)=O)c3ccc(OCc4ccccc4)cc23)C(=O)O)cc1

$$$$

  SciTegic03142313312D

 39 43  0  0  0  0            999 V2000
   -2.1567   -3.7722    0.0000 C   0  0
   -0.6890   -4.0818    0.0000 C   0  0
   -0.2237   -5.5078    0.0000 O   0  0
    0.3114   -2.9665    0.0000 N   0  0
    1.8032   -3.1233    0.0000 C   0  0
    2.4133   -1.7530    0.0000 C   0  0
    3.8794   -1.4442    0.0000 C   0  0
    4.8823   -2.5608    0.0000 C   0  0
    6.3500   -2.2471    0.0000 C   0  0
    6.8128   -0.8202    0.0000 O   0  0
    7.3546   -3.3610    0.0000 O   0  0
    4.4177   -3.9879    0.0000 C   0  0
    5.4184   -5.1053    0.0000 C   0  0
    4.9511   -6.5307    0.0000 C   0  0
    3.4830   -6.8387    0.0000 C   0  0
    3.0126   -8.2638    0.0000 O   0  0
    1.5433   -8.5699    0.0000 C   0  0
    1.0728   -9.9951    0.0000 C   0  0
   -0.3953  -10.3031    0.0000 C   0  0
   -0.8626  -11.7285    0.0000 C   0  0
    0.1381  -12.8459    0.0000 C   0  0
    1.6062  -12.5379    0.0000 C   0  0
    2.0735  -11.1126    0.0000 C   0  0
    2.4823   -5.7213    0.0000 C   0  0
    2.9496   -4.2959    0.0000 C   0  0
    1.2990   -0.7500    0.0000 C   0  0
    1.2990    0.7500    0.0000 C   0  0
    0.0000    1.5000    0.0000 C   0  0
   -0.0031    3.0008    0.0000 O   0  0
   -1.3039    3.7494    0.0000 C   0  0
   -1.3070    5.2502    0.0000 C   0  0
   -2.6061    6.0003    0.0000 C   0  0
   -2.6061    7.5003    0.0000 C   0  0
   -1.3071    8.2503    0.0000 C   0  0
   -0.0080    7.5003    0.0000 C   0  0
   -0.0080    6.0003    0.0000 C   0  0
   -1.2990    0.7500    0.0000 C   0  0
   -1.2990   -0.7500    0.0000 C   0  0
    0.0000   -1.5000    0.0000 C   0  0
  1  2  1  0
  2  3  2  0
  2  4  1  0
  4  5  1  0
  5  6  2  0
  6  7  1  0
  7  8  2  0
  8  9  1  0
  9 10  2  0
  9 11  1  0
  8 12  1  0
 12 13  2  0
 13 14  1  0
 14 15  2  0
 15 16  1  0
 16 17  1  0
 17 18  1  0
 18 19  2  0
 19 20  1  0
 20 21  2  0
 21 22  1  0
 22 23  2  0
 23 18  1  0
 15 24  1  0
 24 25  2  0
 25 12  1  0
  6 26  1  0
 26 27  2  0
 27 28  1  0
 28 29  1  0
 29 30  1  0
 30 31  1  0
 31 32  2  0
 32 33  1  0
 33 34  2  0
 34 35  1  0
 35 36  2  0
 36 31  1  0
 28 37  2  0
 37 38  1  0
 38 39  2  0
 39 26  1  0
 39  4  1  0
M  END
> <assay_chembl_id>
CHEMBL2423522

> <assay_description>
Cytotoxicity against human LNCAP cells assessed as cell viability after 72 hrs by MTT assay

> <document_journal>
Bioorg Med Chem

> <molecule_chembl_id>
CHEMBL2417646

> <standard_value>
77700

> <IC50_uM>
77.7

> <Activity>
No

> <Canonical_Smiles>
CC(=O)n1cc(/C=C(/C(=O)O)c2ccc(OCc3ccccc3)cc2)c2cc(OCc3ccccc3)ccc21

$$$$

  SciTegic03142313312D

 33 36  0  0  0  0            999 V2000
   -6.1709   -8.2249    0.0000 C   0  0
   -5.1640   -7.1130    0.0000 O   0  0
   -3.6967   -7.4283    0.0000 C   0  0
   -3.2334   -8.8550    0.0000 C   0  0
   -1.7662   -9.1671    0.0000 C   0  0
   -0.7624   -8.0525    0.0000 C   0  0
   -1.2256   -6.6258    0.0000 C   0  0
   -0.2234   -5.5086    0.0000 C   0  0
   -0.6890   -4.0818    0.0000 C   0  0
   -2.1547   -3.7712    0.0000 C   0  0
   -3.2669   -4.7776    0.0000 C   0  0
   -4.5678   -4.0309    0.0000 N   0  0
   -5.9339   -4.6462    0.0000 C   0  0
   -7.1509   -3.7695    0.0000 C   0  0
   -6.0851   -6.1386    0.0000 O   0  0
   -4.2595   -2.5637    0.0000 C   0  0
   -5.1442   -1.3524    0.0000 C   0  0
   -4.5375    0.0195    0.0000 C   0  0
   -3.0461    0.1799    0.0000 C   0  0
   -2.4362    1.5513    0.0000 O   0  0
   -0.9438    1.7097    0.0000 C   0  0
   -0.3339    3.0811    0.0000 C   0  0
    1.1575    3.2416    0.0000 C   0  0
    1.7642    4.6134    0.0000 C   0  0
    0.8796    5.8248    0.0000 C   0  0
   -0.6118    5.6643    0.0000 C   0  0
   -1.2186    4.2925    0.0000 C   0  0
   -2.1614   -1.0314    0.0000 C   0  0
   -2.7681   -2.4032    0.0000 C   0  0
    1.2457   -5.8153    0.0000 C   0  0
    2.2461   -4.6976    0.0000 O   0  0
    1.7140   -7.2404    0.0000 O   0  0
   -2.6928   -6.3138    0.0000 C   0  0
  1  2  1  0
  2  3  1  0
  3  4  2  0
  4  5  1  0
  5  6  2  0
  6  7  1  0
  7  8  1  0
  8  9  2  0
  9 10  1  0
 10 11  2  0
 11 12  1  0
 12 13  1  0
 13 14  1  0
 13 15  2  0
 12 16  1  0
 16 17  2  0
 17 18  1  0
 18 19  2  0
 19 20  1  0
 20 21  1  0
 21 22  1  0
 22 23  2  0
 23 24  1  0
 24 25  2  0
 25 26  1  0
 26 27  2  0
 27 22  1  0
 19 28  1  0
 28 29  2  0
 29 10  1  0
 29 16  1  0
  8 30  1  0
 30 31  2  0
 30 32  1  0
  7 33  2  0
 33  3  1  0
M  END
> <assay_chembl_id>
CHEMBL2423522

> <assay_description>
Cytotoxicity against human LNCAP cells assessed as cell viability after 72 hrs by MTT assay

> <document_journal>
Bioorg Med Chem

> <molecule_chembl_id>
CHEMBL2417639

> <standard_value>
65100

> <IC50_uM>
65.1

> <Activity>
No

> <Canonical_Smiles>
COc1cccc(/C(=C\c2cn(C(C)=O)c3ccc(OCc4ccccc4)cc23)C(=O)O)c1

$$$$

  SciTegic03142313312D

 37 40  0  0  0  0            999 V2000
    0.1679  -10.9036    0.0000 C   0  0
   -1.2997  -10.5936    0.0000 O   0  0
   -1.7662   -9.1671    0.0000 C   0  0
   -0.7624   -8.0525    0.0000 C   0  0
   -1.2256   -6.6258    0.0000 C   0  0
   -0.2234   -5.5086    0.0000 C   0  0
   -0.6890   -4.0818    0.0000 C   0  0
   -2.1547   -3.7712    0.0000 C   0  0
   -3.2669   -4.7776    0.0000 C   0  0
   -4.5678   -4.0309    0.0000 N   0  0
   -5.9339   -4.6462    0.0000 C   0  0
   -7.1509   -3.7695    0.0000 C   0  0
   -6.0851   -6.1386    0.0000 O   0  0
   -4.2595   -2.5637    0.0000 C   0  0
   -5.1442   -1.3524    0.0000 C   0  0
   -4.5375    0.0195    0.0000 C   0  0
   -3.0461    0.1799    0.0000 C   0  0
   -2.4362    1.5513    0.0000 O   0  0
   -0.9438    1.7097    0.0000 C   0  0
   -0.3339    3.0811    0.0000 C   0  0
    1.1575    3.2416    0.0000 C   0  0
    1.7642    4.6134    0.0000 C   0  0
    0.8796    5.8248    0.0000 C   0  0
   -0.6118    5.6643    0.0000 C   0  0
   -1.2186    4.2925    0.0000 C   0  0
   -2.1614   -1.0314    0.0000 C   0  0
   -2.7681   -2.4032    0.0000 C   0  0
    1.2457   -5.8153    0.0000 C   0  0
    2.2461   -4.6976    0.0000 O   0  0
    1.7140   -7.2404    0.0000 O   0  0
   -2.6928   -6.3138    0.0000 C   0  0
   -3.6967   -7.4283    0.0000 C   0  0
   -5.1640   -7.1130    0.0000 O   0  0
   -6.1709   -8.2249    0.0000 C   0  0
   -3.2334   -8.8550    0.0000 C   0  0
   -4.2355   -9.9722    0.0000 O   0  0
   -3.7702  -11.3982    0.0000 C   0  0
  1  2  1  0
  2  3  1  0
  3  4  2  0
  4  5  1  0
  5  6  1  0
  6  7  2  0
  7  8  1  0
  8  9  2  0
  9 10  1  0
 10 11  1  0
 11 12  1  0
 11 13  2  0
 10 14  1  0
 14 15  2  0
 15 16  1  0
 16 17  2  0
 17 18  1  0
 18 19  1  0
 19 20  1  0
 20 21  2  0
 21 22  1  0
 22 23  2  0
 23 24  1  0
 24 25  2  0
 25 20  1  0
 17 26  1  0
 26 27  2  0
 27  8  1  0
 27 14  1  0
  6 28  1  0
 28 29  2  0
 28 30  1  0
  5 31  2  0
 31 32  1  0
 32 33  1  0
 33 34  1  0
 32 35  2  0
 35  3  1  0
 35 36  1  0
 36 37  1  0
M  END
> <assay_chembl_id>
CHEMBL2423522

> <assay_description>
Cytotoxicity against human LNCAP cells assessed as cell viability after 72 hrs by MTT assay

> <document_journal>
Bioorg Med Chem

> <molecule_chembl_id>
CHEMBL2417643

> <standard_value>
59600

> <IC50_uM>
59.6

> <Activity>
No

> <Canonical_Smiles>
COc1cc(/C(=C\c2cn(C(C)=O)c3ccc(OCc4ccccc4)cc23)C(=O)O)cc(OC)c1OC

$$$$

  SciTegic03142313312D

 33 36  0  0  0  0            999 V2000
    1.1662   -9.7952    0.0000 C   0  0
    0.7050   -8.3678    0.0000 O   0  0
   -0.7624   -8.0525    0.0000 C   0  0
   -1.7662   -9.1671    0.0000 C   0  0
   -3.2334   -8.8550    0.0000 C   0  0
   -3.6967   -7.4283    0.0000 C   0  0
   -2.6928   -6.3138    0.0000 C   0  0
   -1.2256   -6.6258    0.0000 C   0  0
   -0.2234   -5.5086    0.0000 C   0  0
   -0.6890   -4.0818    0.0000 C   0  0
   -2.1547   -3.7712    0.0000 C   0  0
   -3.2669   -4.7776    0.0000 C   0  0
   -4.5678   -4.0309    0.0000 N   0  0
   -5.9339   -4.6462    0.0000 C   0  0
   -7.1509   -3.7695    0.0000 C   0  0
   -6.0851   -6.1386    0.0000 O   0  0
   -4.2595   -2.5637    0.0000 C   0  0
   -5.1442   -1.3524    0.0000 C   0  0
   -4.5375    0.0195    0.0000 C   0  0
   -3.0461    0.1799    0.0000 C   0  0
   -2.4362    1.5513    0.0000 O   0  0
   -0.9438    1.7097    0.0000 C   0  0
   -0.3339    3.0811    0.0000 C   0  0
    1.1575    3.2416    0.0000 C   0  0
    1.7642    4.6134    0.0000 C   0  0
    0.8796    5.8248    0.0000 C   0  0
   -0.6118    5.6643    0.0000 C   0  0
   -1.2186    4.2925    0.0000 C   0  0
   -2.1614   -1.0314    0.0000 C   0  0
   -2.7681   -2.4032    0.0000 C   0  0
    1.2457   -5.8153    0.0000 C   0  0
    2.2461   -4.6976    0.0000 O   0  0
    1.7140   -7.2404    0.0000 O   0  0
  1  2  1  0
  2  3  1  0
  3  4  2  0
  4  5  1  0
  5  6  2  0
  6  7  1  0
  7  8  2  0
  8  3  1  0
  8  9  1  0
  9 10  2  0
 10 11  1  0
 11 12  2  0
 12 13  1  0
 13 14  1  0
 14 15  1  0
 14 16  2  0
 13 17  1  0
 17 18  2  0
 18 19  1  0
 19 20  2  0
 20 21  1  0
 21 22  1  0
 22 23  1  0
 23 24  2  0
 24 25  1  0
 25 26  2  0
 26 27  1  0
 27 28  2  0
 28 23  1  0
 20 29  1  0
 29 30  2  0
 30 11  1  0
 30 17  1  0
  9 31  1  0
 31 32  2  0
 31 33  1  0
M  END
> <assay_chembl_id>
CHEMBL2423522

> <assay_description>
Cytotoxicity against human LNCAP cells assessed as cell viability after 72 hrs by MTT assay

> <document_journal>
Bioorg Med Chem

> <molecule_chembl_id>
CHEMBL2417640

> <standard_value>
48500

> <IC50_uM>
48.5

> <Activity>
No

> <Canonical_Smiles>
COc1ccccc1/C(=C\c1cn(C(C)=O)c2ccc(OCc3ccccc3)cc12)C(=O)O

$$$$

  SciTegic03142313312D

 35 38  0  0  0  0            999 V2000
   -6.1709   -8.2249    0.0000 C   0  0
   -5.1640   -7.1130    0.0000 O   0  0
   -3.6967   -7.4283    0.0000 C   0  0
   -3.2334   -8.8550    0.0000 C   0  0
   -1.7662   -9.1671    0.0000 C   0  0
   -0.7624   -8.0525    0.0000 C   0  0
    0.7050   -8.3678    0.0000 O   0  0
    1.1662   -9.7952    0.0000 C   0  0
   -1.2256   -6.6258    0.0000 C   0  0
   -0.2234   -5.5086    0.0000 C   0  0
   -0.6890   -4.0818    0.0000 C   0  0
   -2.1547   -3.7712    0.0000 C   0  0
   -3.2669   -4.7776    0.0000 C   0  0
   -4.5678   -4.0309    0.0000 N   0  0
   -5.9339   -4.6462    0.0000 C   0  0
   -7.1509   -3.7695    0.0000 C   0  0
   -6.0851   -6.1386    0.0000 O   0  0
   -4.2595   -2.5637    0.0000 C   0  0
   -5.1442   -1.3524    0.0000 C   0  0
   -4.5375    0.0195    0.0000 C   0  0
   -3.0461    0.1799    0.0000 C   0  0
   -2.4362    1.5513    0.0000 O   0  0
   -0.9438    1.7097    0.0000 C   0  0
   -0.3339    3.0811    0.0000 C   0  0
    1.1575    3.2416    0.0000 C   0  0
    1.7642    4.6134    0.0000 C   0  0
    0.8796    5.8248    0.0000 C   0  0
   -0.6118    5.6643    0.0000 C   0  0
   -1.2186    4.2925    0.0000 C   0  0
   -2.1614   -1.0314    0.0000 C   0  0
   -2.7681   -2.4032    0.0000 C   0  0
    1.2457   -5.8153    0.0000 C   0  0
    2.2461   -4.6976    0.0000 O   0  0
    1.7140   -7.2404    0.0000 O   0  0
   -2.6928   -6.3138    0.0000 C   0  0
  1  2  1  0
  2  3  1  0
  3  4  2  0
  4  5  1  0
  5  6  2  0
  6  7  1  0
  7  8  1  0
  6  9  1  0
  9 10  1  0
 10 11  2  0
 11 12  1  0
 12 13  2  0
 13 14  1  0
 14 15  1  0
 15 16  1  0
 15 17  2  0
 14 18  1  0
 18 19  2  0
 19 20  1  0
 20 21  2  0
 21 22  1  0
 22 23  1  0
 23 24  1  0
 24 25  2  0
 25 26  1  0
 26 27  2  0
 27 28  1  0
 28 29  2  0
 29 24  1  0
 21 30  1  0
 30 31  2  0
 31 12  1  0
 31 18  1  0
 10 32  1  0
 32 33  2  0
 32 34  1  0
  9 35  2  0
 35  3  1  0
M  END
> <assay_chembl_id>
CHEMBL2423522

> <assay_description>
Cytotoxicity against human LNCAP cells assessed as cell viability after 72 hrs by MTT assay

> <document_journal>
Bioorg Med Chem

> <molecule_chembl_id>
CHEMBL2417645

> <standard_value>
44100

> <IC50_uM>
44.1

> <Activity>
No

> <Canonical_Smiles>
COc1ccc(OC)c(/C(=C\c2cn(C(C)=O)c3ccc(OCc4ccccc4)cc23)C(=O)O)c1

$$$$

  SciTegic03142313312D

 37 41  0  0  0  0            999 V2000
    2.6531  -10.0886    0.0000 C   0  0
    1.1844   -9.7837    0.0000 O   0  0
    0.7130   -8.3588    0.0000 C   0  0
   -0.7552   -8.0517    0.0000 C   0  0
   -1.2234   -6.6267    0.0000 C   0  0
   -0.2234   -5.5086    0.0000 C   0  0
   -0.6890   -4.0818    0.0000 C   0  0
    0.3114   -2.9665    0.0000 N   0  0
    1.8032   -3.1233    0.0000 C   0  0
    2.4133   -1.7530    0.0000 C   0  0
    3.8794   -1.4442    0.0000 C   0  0
    4.8823   -2.5608    0.0000 C   0  0
    6.3500   -2.2471    0.0000 C   0  0
    6.8128   -0.8202    0.0000 O   0  0
    7.3546   -3.3610    0.0000 O   0  0
    4.4177   -3.9879    0.0000 C   0  0
    5.4184   -5.1053    0.0000 C   0  0
    4.9511   -6.5307    0.0000 C   0  0
    3.4830   -6.8387    0.0000 C   0  0
    2.4823   -5.7213    0.0000 C   0  0
    2.9496   -4.2959    0.0000 C   0  0
    1.2990   -0.7500    0.0000 C   0  0
    1.2990    0.7500    0.0000 C   0  0
    0.0000    1.5000    0.0000 C   0  0
   -0.0031    3.0008    0.0000 O   0  0
   -1.3039    3.7494    0.0000 C   0  0
   -1.3070    5.2502    0.0000 C   0  0
   -2.6061    6.0003    0.0000 C   0  0
   -2.6061    7.5003    0.0000 C   0  0
   -1.3071    8.2503    0.0000 C   0  0
   -0.0080    7.5003    0.0000 C   0  0
   -0.0080    6.0003    0.0000 C   0  0
   -1.2990    0.7500    0.0000 C   0  0
   -1.2990   -0.7500    0.0000 C   0  0
    0.0000   -1.5000    0.0000 C   0  0
    1.2449   -5.8157    0.0000 C   0  0
    1.7131   -7.2408    0.0000 C   0  0
  1  2  1  0
  2  3  1  0
  3  4  2  0
  4  5  1  0
  5  6  2  0
  6  7  1  0
  7  8  1  0
  8  9  1  0
  9 10  2  0
 10 11  1  0
 11 12  2  0
 12 13  1  0
 13 14  2  0
 13 15  1  0
 12 16  1  0
 16 17  2  0
 17 18  1  0
 18 19  2  0
 19 20  1  0
 20 21  2  0
 21 16  1  0
 10 22  1  0
 22 23  2  0
 23 24  1  0
 24 25  1  0
 25 26  1  0
 26 27  1  0
 27 28  2  0
 28 29  1  0
 29 30  2  0
 30 31  1  0
 31 32  2  0
 32 27  1  0
 24 33  2  0
 33 34  1  0
 34 35  2  0
 35 22  1  0
 35  8  1  0
  6 36  1  0
 36 37  2  0
 37  3  1  0
M  END
> <assay_chembl_id>
CHEMBL2423522

> <assay_description>
Cytotoxicity against human LNCAP cells assessed as cell viability after 72 hrs by MTT assay

> <document_journal>
Bioorg Med Chem

> <molecule_chembl_id>
CHEMBL2417656

> <standard_value>
38200

> <IC50_uM>
38.2

> <Activity>
No

> <Canonical_Smiles>
COc1ccc(Cn2cc(/C=C(/C(=O)O)c3ccccc3)c3cc(OCc4ccccc4)ccc32)cc1

$$$$

  SciTegic03142313312D

 35 38  0  0  0  0            999 V2000
   -6.1709   -8.2249    0.0000 C   0  0
   -5.1640   -7.1130    0.0000 O   0  0
   -3.6967   -7.4283    0.0000 C   0  0
   -3.2334   -8.8550    0.0000 C   0  0
   -1.7662   -9.1671    0.0000 C   0  0
   -1.2997  -10.5936    0.0000 O   0  0
    0.1679  -10.9036    0.0000 C   0  0
   -0.7624   -8.0525    0.0000 C   0  0
   -1.2256   -6.6258    0.0000 C   0  0
   -0.2234   -5.5086    0.0000 C   0  0
   -0.6890   -4.0818    0.0000 C   0  0
   -2.1547   -3.7712    0.0000 C   0  0
   -3.2669   -4.7776    0.0000 C   0  0
   -4.5678   -4.0309    0.0000 N   0  0
   -5.9339   -4.6462    0.0000 C   0  0
   -7.1509   -3.7695    0.0000 C   0  0
   -6.0851   -6.1386    0.0000 O   0  0
   -4.2595   -2.5637    0.0000 C   0  0
   -5.1442   -1.3524    0.0000 C   0  0
   -4.5375    0.0195    0.0000 C   0  0
   -3.0461    0.1799    0.0000 C   0  0
   -2.4362    1.5513    0.0000 O   0  0
   -0.9438    1.7097    0.0000 C   0  0
   -0.3339    3.0811    0.0000 C   0  0
    1.1575    3.2416    0.0000 C   0  0
    1.7642    4.6134    0.0000 C   0  0
    0.8796    5.8248    0.0000 C   0  0
   -0.6118    5.6643    0.0000 C   0  0
   -1.2186    4.2925    0.0000 C   0  0
   -2.1614   -1.0314    0.0000 C   0  0
   -2.7681   -2.4032    0.0000 C   0  0
    1.2457   -5.8153    0.0000 C   0  0
    2.2461   -4.6976    0.0000 O   0  0
    1.7140   -7.2404    0.0000 O   0  0
   -2.6928   -6.3138    0.0000 C   0  0
  1  2  1  0
  2  3  1  0
  3  4  2  0
  4  5  1  0
  5  6  1  0
  6  7  1  0
  5  8  2  0
  8  9  1  0
  9 10  1  0
 10 11  2  0
 11 12  1  0
 12 13  2  0
 13 14  1  0
 14 15  1  0
 15 16  1  0
 15 17  2  0
 14 18  1  0
 18 19  2  0
 19 20  1  0
 20 21  2  0
 21 22  1  0
 22 23  1  0
 23 24  1  0
 24 25  2  0
 25 26  1  0
 26 27  2  0
 27 28  1  0
 28 29  2  0
 29 24  1  0
 21 30  1  0
 30 31  2  0
 31 12  1  0
 31 18  1  0
 10 32  1  0
 32 33  2  0
 32 34  1  0
  9 35  2  0
 35  3  1  0
M  END
> <assay_chembl_id>
CHEMBL2423522

> <assay_description>
Cytotoxicity against human LNCAP cells assessed as cell viability after 72 hrs by MTT assay

> <document_journal>
Bioorg Med Chem

> <molecule_chembl_id>
CHEMBL2417644

> <standard_value>
26100

> <IC50_uM>
26.1

> <Activity>
No

> <Canonical_Smiles>
COc1cc(OC)cc(/C(=C\c2cn(C(C)=O)c3ccc(OCc4ccccc4)cc23)C(=O)O)c1

$$$$

  SciTegic03142313312D

 37 41  0  0  0  0            999 V2000
    9.0946   -5.2463    0.0000 C   0  0
    9.0967   -3.7463    0.0000 O   0  0
    7.7985   -2.9932    0.0000 C   0  0
    7.7985   -1.4932    0.0000 C   0  0
    6.4994   -0.7432    0.0000 C   0  0
    5.2003   -1.4932    0.0000 C   0  0
    3.8990   -0.7455    0.0000 C   0  0
    2.6003   -1.4977    0.0000 N   0  0
    1.2990   -0.7500    0.0000 C   0  0
    1.2990    0.7500    0.0000 C   0  0
    0.0000    1.5000    0.0000 C   0  0
   -1.2990    0.7500    0.0000 C   0  0
   -2.5973    1.5031    0.0000 O   0  0
   -2.5951    3.0039    0.0000 S   0  0
   -1.2948    3.7516    0.0000 O   0  0
   -1.2973    2.2519    0.0000 O   0  0
   -3.8933    3.7570    0.0000 C   0  0
   -5.1939    3.0097    0.0000 C   0  0
   -6.4914    3.7623    0.0000 C   0  0
   -6.4883    5.2623    0.0000 C   0  0
   -7.7858    6.0150    0.0000 C   0  0
   -5.1878    6.0096    0.0000 C   0  0
   -3.8903    5.2570    0.0000 C   0  0
   -1.2990   -0.7500    0.0000 C   0  0
    0.0000   -1.5000    0.0000 C   0  0
    0.0000   -3.0000    0.0000 C   0  0
    1.2990   -3.7500    0.0000 O   0  0
   -1.2990   -3.7500    0.0000 C   0  0
   -1.2990   -5.2500    0.0000 C   0  0
   -2.5981   -6.0000    0.0000 C   0  0
   -3.8971   -5.2500    0.0000 C   0  0
   -3.8971   -3.7500    0.0000 C   0  0
   -2.5981   -3.0000    0.0000 C   0  0
   -2.5981   -1.5000    0.0000 C   0  0
   -3.8971   -0.7500    0.0000 O   0  0
    5.2004   -2.9933    0.0000 C   0  0
    6.4995   -3.7432    0.0000 C   0  0
  1  2  1  0
  2  3  1  0
  3  4  2  0
  4  5  1  0
  5  6  2  0
  6  7  1  0
  7  8  1  0
  8  9  1  0
  9 10  2  0
 10 11  1  0
 11 12  2  0
 12 13  1  0
 13 14  1  0
 14 15  2  0
 14 16  2  0
 14 17  1  0
 17 18  2  0
 18 19  1  0
 19 20  2  0
 20 21  1  0
 20 22  1  0
 22 23  2  0
 23 17  1  0
 12 24  1  0
 24 25  2  0
 25  9  1  0
 25 26  1  0
 26 27  2  0
 26 28  1  0
 28 29  2  0
 29 30  1  0
 30 31  2  0
 31 32  1  0
 32 33  2  0
 33 28  1  0
 33 34  1  0
 34 24  1  0
 34 35  2  0
  6 36  1  0
 36 37  2  0
 37  3  1  0
M  END
> <assay_chembl_id>
CHEMBL2445959

> <assay_description>
Antiproliferative activity against human LNCAP cells after 72 hrs by MTT assay

> <document_journal>
Bioorg Med Chem Lett

> <molecule_chembl_id>
CHEMBL2442835

> <standard_value>
900

> <IC50_uM>
0.9

> <Activity>
Yes

> <Canonical_Smiles>
COc1ccc(CNc2ccc(OS(=O)(=O)c3ccc(C)cc3)c3c2C(=O)c2ccccc2C3=O)cc1

$$$$

  SciTegic03142313312D

 36 40  0  0  0  0            999 V2000
    9.1021   -3.7352    0.0000 C   0  0
    7.8015   -2.9878    0.0000 C   0  0
    6.5040   -3.7405    0.0000 C   0  0
    5.2034   -2.9932    0.0000 C   0  0
    5.2003   -1.4932    0.0000 C   0  0
    3.8990   -0.7455    0.0000 S   0  0
    3.8964    0.7545    0.0000 O   0  0
    2.5988    0.0025    0.0000 O   0  0
    2.6003   -1.4977    0.0000 O   0  0
    1.2990   -0.7500    0.0000 C   0  0
    1.2990    0.7500    0.0000 C   0  0
    0.0000    1.5000    0.0000 C   0  0
   -1.2990    0.7500    0.0000 C   0  0
   -2.5973    1.5031    0.0000 N   0  0
   -2.5951    3.0039    0.0000 C   0  0
   -3.8933    3.7570    0.0000 C   0  0
   -3.8934    5.2570    0.0000 C   0  0
   -5.1924    6.0070    0.0000 C   0  0
   -6.4915    5.2571    0.0000 C   0  0
   -7.7905    6.0071    0.0000 N   0  0
   -6.4915    3.7571    0.0000 C   0  0
   -5.1925    3.0070    0.0000 C   0  0
   -1.2990   -0.7500    0.0000 C   0  0
    0.0000   -1.5000    0.0000 C   0  0
    0.0000   -3.0000    0.0000 C   0  0
    1.2990   -3.7500    0.0000 O   0  0
   -1.2990   -3.7500    0.0000 C   0  0
   -1.2990   -5.2500    0.0000 C   0  0
   -2.5981   -6.0000    0.0000 C   0  0
   -3.8971   -5.2500    0.0000 C   0  0
   -3.8971   -3.7500    0.0000 C   0  0
   -2.5981   -3.0000    0.0000 C   0  0
   -2.5981   -1.5000    0.0000 C   0  0
   -3.8971   -0.7500    0.0000 O   0  0
    6.4978   -0.7405    0.0000 C   0  0
    7.7984   -1.4879    0.0000 C   0  0
  1  2  1  0
  2  3  2  0
  3  4  1  0
  4  5  2  0
  5  6  1  0
  6  7  2  0
  6  8  2  0
  6  9  1  0
  9 10  1  0
 10 11  2  0
 11 12  1  0
 12 13  2  0
 13 14  1  0
 14 15  1  0
 15 16  1  0
 16 17  2  0
 17 18  1  0
 18 19  2  0
 19 20  1  0
 19 21  1  0
 21 22  2  0
 22 16  1  0
 13 23  1  0
 23 24  2  0
 24 10  1  0
 24 25  1  0
 25 26  2  0
 25 27  1  0
 27 28  2  0
 28 29  1  0
 29 30  2  0
 30 31  1  0
 31 32  2  0
 32 27  1  0
 32 33  1  0
 33 23  1  0
 33 34  2  0
  5 35  1  0
 35 36  2  0
 36  2  1  0
M  END
> <assay_chembl_id>
CHEMBL2445959

> <assay_description>
Antiproliferative activity against human LNCAP cells after 72 hrs by MTT assay

> <document_journal>
Bioorg Med Chem Lett

> <molecule_chembl_id>
CHEMBL2442836

> <standard_value>
400

> <IC50_uM>
0.4

> <Activity>
Yes

> <Canonical_Smiles>
Cc1ccc(S(=O)(=O)Oc2ccc(NCc3ccc(N)cc3)c3c2C(=O)c2ccccc2C3=O)cc1

$$$$

  SciTegic03142313312D

 27 29  0  0  0  0            999 V2000
    5.1937   -3.0093    0.0000 O   0  0
    3.8933   -3.7570    0.0000 C   0  0
    2.5951   -3.0039    0.0000 C   0  0
    2.5973   -1.5031    0.0000 C   0  0
    1.2990   -0.7500    0.0000 C   0  0
    1.2990    0.7500    0.0000 C   0  0
    0.0000    1.5000    0.0000 C   0  0
   -1.2990    0.7500    0.0000 C   0  0
   -2.5981    1.5000    0.0000 O   0  0
   -1.2990   -0.7500    0.0000 C   0  0
   -2.5981   -1.5000    0.0000 O   0  0
    0.0000   -1.5000    0.0000 C   0  0
    3.8912   -5.2578    0.0000 O   0  0
    5.1894   -6.0109    0.0000 C   0  0
    5.1873   -7.5117    0.0000 C   0  0
    6.4855   -8.2648    0.0000 C   0  0
    6.4855   -9.7648    0.0000 C   0  0
    7.7846  -10.5149    0.0000 C   0  0
    9.0836   -9.7649    0.0000 C   0  0
    9.0836   -8.2649    0.0000 C   0  0
    7.7846   -7.5149    0.0000 C   0  0
    3.8863   -8.2598    0.0000 C   0  0
    3.8815   -9.7599    0.0000 C   0  0
    2.5802  -10.5059    0.0000 C   0  0
    1.2835   -9.7518    0.0000 C   0  0
    1.2881   -8.2518    0.0000 C   0  0
    2.5895   -7.5059    0.0000 C   0  0
  1  2  2  0
  2  3  1  0
  3  4  2  0
  4  5  1  0
  5  6  2  0
  6  7  1  0
  7  8  2  0
  8  9  1  0
  8 10  1  0
 10 11  1  0
 10 12  2  0
 12  5  1  0
  2 13  1  0
 13 14  1  0
 14 15  1  0
 15 16  1  0
 16 17  2  0
 17 18  1  0
 18 19  2  0
 19 20  1  0
 20 21  2  0
 21 16  1  0
 15 22  1  0
 22 23  2  0
 23 24  1  0
 24 25  2  0
 25 26  1  0
 26 27  2  0
 27 22  1  0
M  END
> <assay_chembl_id>
CHEMBL2444378

> <assay_description>
Cytotoxicity against human LNCAP cells assessed as reduction in cell viability after 24 hrs by WST-1 assay

> <document_journal>
Bioorg Med Chem

> <molecule_chembl_id>
CHEMBL2441917

> <standard_value>
20800

> <IC50_uM>
20.8

> <Activity>
No

> <Canonical_Smiles>
O=C(/C=C/c1ccc(O)c(O)c1)OCC(c1ccccc1)c1ccccc1

$$$$

  SciTegic03142313312D

 24 25  0  0  0  0            999 V2000
    5.1937   -3.0093    0.0000 O   0  0
    3.8933   -3.7570    0.0000 C   0  0
    2.5951   -3.0039    0.0000 C   0  0
    2.5973   -1.5031    0.0000 C   0  0
    1.2990   -0.7500    0.0000 C   0  0
    1.2990    0.7500    0.0000 C   0  0
    0.0000    1.5000    0.0000 C   0  0
   -1.2990    0.7500    0.0000 C   0  0
   -2.5981    1.5000    0.0000 O   0  0
   -1.2990   -0.7500    0.0000 C   0  0
   -2.5981   -1.5000    0.0000 O   0  0
    0.0000   -1.5000    0.0000 C   0  0
    3.8912   -5.2578    0.0000 O   0  0
    5.1894   -6.0109    0.0000 C   0  0
    5.1873   -7.5117    0.0000 C   0  0
    6.4855   -8.2648    0.0000 C   0  0
    6.4855   -9.7648    0.0000 C   0  0
    7.7846  -10.5149    0.0000 C   0  0
    9.0836   -9.7649    0.0000 C   0  0
   10.3849  -10.5127    0.0000 N   0  3
   11.6829   -9.7608    0.0000 O   0  0
   10.3875  -12.0127    0.0000 O   0  5
    9.0836   -8.2649    0.0000 C   0  0
    7.7846   -7.5149    0.0000 C   0  0
  1  2  2  0
  2  3  1  0
  3  4  2  0
  4  5  1  0
  5  6  2  0
  6  7  1  0
  7  8  2  0
  8  9  1  0
  8 10  1  0
 10 11  1  0
 10 12  2  0
 12  5  1  0
  2 13  1  0
 13 14  1  0
 14 15  1  0
 15 16  1  0
 16 17  2  0
 17 18  1  0
 18 19  2  0
 19 20  1  0
 20 21  2  0
 20 22  1  0
 19 23  1  0
 23 24  2  0
 24 16  1  0
M  CHG  2  20   1  22  -1
M  END
> <assay_chembl_id>
CHEMBL2444378

> <assay_description>
Cytotoxicity against human LNCAP cells assessed as reduction in cell viability after 24 hrs by WST-1 assay

> <document_journal>
Bioorg Med Chem

> <molecule_chembl_id>
CHEMBL2441916

> <standard_value>
33500

> <IC50_uM>
33.5

> <Activity>
No

> <Canonical_Smiles>
O=C(/C=C/c1ccc(O)c(O)c1)OCCc1ccc([N+](=O)[O-])cc1

$$$$

  SciTegic03142313312D

 23 24  0  0  0  0            999 V2000
    2.5951   -3.0031    0.0000 C   0  0
    2.5973   -1.5031    0.0000 O   0  0
    1.2990   -0.7500    0.0000 C   0  0
    1.2990    0.7500    0.0000 C   0  0
    0.0000    1.5000    0.0000 C   0  0
   -1.2990    0.7500    0.0000 C   0  0
   -2.6003    1.4977    0.0000 C   0  0
   -3.8990    0.7455    0.0000 C   0  0
   -5.2003    1.4932    0.0000 O   0  0
   -6.4990    0.7409    0.0000 C   0  0
   -6.4964   -0.7591    0.0000 O   0  0
   -7.8003    1.4887    0.0000 C   0  0
   -9.0990    0.7364    0.0000 C   0  0
  -10.4003    1.4841    0.0000 C   0  0
  -11.6994    0.7341    0.0000 C   0  0
  -12.9984    1.4841    0.0000 C   0  0
  -12.9985    2.9841    0.0000 C   0  0
  -14.2975    3.7341    0.0000 O   0  0
  -11.6994    3.7341    0.0000 C   0  0
  -11.6995    5.2341    0.0000 O   0  0
  -10.4004    2.9842    0.0000 C   0  0
   -1.2990   -0.7500    0.0000 C   0  0
    0.0000   -1.5000    0.0000 C   0  0
  1  2  1  0
  2  3  1  0
  3  4  2  0
  4  5  1  0
  5  6  2  0
  6  7  1  0
  7  8  1  0
  8  9  1  0
  9 10  1  0
 10 11  2  0
 10 12  1  0
 12 13  2  0
 13 14  1  0
 14 15  2  0
 15 16  1  0
 16 17  2  0
 17 18  1  0
 17 19  1  0
 19 20  1  0
 19 21  2  0
 21 14  1  0
  6 22  1  0
 22 23  2  0
 23  3  1  0
M  END
> <assay_chembl_id>
CHEMBL2444378

> <assay_description>
Cytotoxicity against human LNCAP cells assessed as reduction in cell viability after 24 hrs by WST-1 assay

> <document_journal>
Bioorg Med Chem

> <molecule_chembl_id>
CHEMBL2441915

> <standard_value>
47300

> <IC50_uM>
47.3

> <Activity>
No

> <Canonical_Smiles>
COc1ccc(CCOC(=O)/C=C/c2ccc(O)c(O)c2)cc1

$$$$

  SciTegic03142313312D

 22 23  0  0  0  0            999 V2000
    5.1937   -3.0093    0.0000 O   0  0
    3.8933   -3.7570    0.0000 C   0  0
    2.5951   -3.0039    0.0000 C   0  0
    2.5973   -1.5031    0.0000 C   0  0
    1.2990   -0.7500    0.0000 C   0  0
    1.2990    0.7500    0.0000 C   0  0
    0.0000    1.5000    0.0000 C   0  0
   -1.2990    0.7500    0.0000 C   0  0
   -2.5981    1.5000    0.0000 O   0  0
   -1.2990   -0.7500    0.0000 C   0  0
   -2.5981   -1.5000    0.0000 O   0  0
    0.0000   -1.5000    0.0000 C   0  0
    3.8912   -5.2578    0.0000 O   0  0
    5.1894   -6.0109    0.0000 C   0  0
    5.1873   -7.5117    0.0000 C   0  0
    6.4855   -8.2648    0.0000 C   0  0
    6.4855   -9.7648    0.0000 C   0  0
    7.7846  -10.5149    0.0000 C   0  0
    9.0836   -9.7649    0.0000 C   0  0
   10.3826  -10.5149    0.0000 F   0  0
    9.0836   -8.2649    0.0000 C   0  0
    7.7846   -7.5149    0.0000 C   0  0
  1  2  2  0
  2  3  1  0
  3  4  2  0
  4  5  1  0
  5  6  2  0
  6  7  1  0
  7  8  2  0
  8  9  1  0
  8 10  1  0
 10 11  1  0
 10 12  2  0
 12  5  1  0
  2 13  1  0
 13 14  1  0
 14 15  1  0
 15 16  1  0
 16 17  2  0
 17 18  1  0
 18 19  2  0
 19 20  1  0
 19 21  1  0
 21 22  2  0
 22 16  1  0
M  END
> <assay_chembl_id>
CHEMBL2444378

> <assay_description>
Cytotoxicity against human LNCAP cells assessed as reduction in cell viability after 24 hrs by WST-1 assay

> <document_journal>
Bioorg Med Chem

> <molecule_chembl_id>
CHEMBL2441913

> <standard_value>
20800

> <IC50_uM>
20.8

> <Activity>
No

> <Canonical_Smiles>
O=C(/C=C/c1ccc(O)c(O)c1)OCCc1ccc(F)cc1

$$$$

  SciTegic03142313312D

 22 23  0  0  0  0            999 V2000
    5.1937   -3.0093    0.0000 O   0  0
    3.8933   -3.7570    0.0000 C   0  0
    2.5951   -3.0039    0.0000 C   0  0
    2.5973   -1.5031    0.0000 C   0  0
    1.2990   -0.7500    0.0000 C   0  0
    1.2990    0.7500    0.0000 C   0  0
    0.0000    1.5000    0.0000 C   0  0
   -1.2990    0.7500    0.0000 C   0  0
   -2.5981    1.5000    0.0000 O   0  0
   -1.2990   -0.7500    0.0000 C   0  0
   -2.5981   -1.5000    0.0000 O   0  0
    0.0000   -1.5000    0.0000 C   0  0
    3.8912   -5.2578    0.0000 O   0  0
    5.1894   -6.0109    0.0000 C   0  0
    5.1873   -7.5117    0.0000 C   0  0
    6.4855   -8.2648    0.0000 C   0  0
    6.4833   -9.7656    0.0000 C   0  0
    7.7798  -10.5202    0.0000 C   0  0
    7.7746  -12.0202    0.0000 C   0  0
    6.4729  -12.7657    0.0000 C   0  0
    5.1765  -12.0112    0.0000 C   0  0
    5.1817  -10.5112    0.0000 C   0  0
  1  2  2  0
  2  3  1  0
  3  4  2  0
  4  5  1  0
  5  6  2  0
  6  7  1  0
  7  8  2  0
  8  9  1  0
  8 10  1  0
 10 11  1  0
 10 12  2  0
 12  5  1  0
  2 13  1  0
 13 14  1  0
 14 15  1  0
 15 16  1  0
 16 17  1  0
 17 18  2  0
 18 19  1  0
 19 20  2  0
 20 21  1  0
 21 22  2  0
 22 17  1  0
M  END
> <assay_chembl_id>
CHEMBL2444378

> <assay_description>
Cytotoxicity against human LNCAP cells assessed as reduction in cell viability after 24 hrs by WST-1 assay

> <document_journal>
Bioorg Med Chem

> <molecule_chembl_id>
CHEMBL131982

> <standard_value>
26600

> <IC50_uM>
26.6

> <Activity>
No

> <Canonical_Smiles>
O=C(/C=C/c1ccc(O)c(O)c1)OCCCc1ccccc1

$$$$

  SciTegic03142313312D

 20 21  0  0  0  0            999 V2000
    5.1937   -3.0093    0.0000 O   0  0
    3.8933   -3.7570    0.0000 C   0  0
    2.5951   -3.0039    0.0000 C   0  0
    2.5973   -1.5031    0.0000 C   0  0
    1.2990   -0.7500    0.0000 C   0  0
    1.2990    0.7500    0.0000 C   0  0
    0.0000    1.5000    0.0000 C   0  0
   -1.2990    0.7500    0.0000 C   0  0
   -2.5981    1.5000    0.0000 O   0  0
   -1.2990   -0.7500    0.0000 C   0  0
   -2.5981   -1.5000    0.0000 O   0  0
    0.0000   -1.5000    0.0000 C   0  0
    3.8912   -5.2578    0.0000 O   0  0
    5.1894   -6.0109    0.0000 C   0  0
    5.1873   -7.5117    0.0000 C   0  0
    6.4837   -8.2663    0.0000 C   0  0
    6.4785   -9.7663    0.0000 C   0  0
    5.1769  -10.5118    0.0000 C   0  0
    3.8804   -9.7573    0.0000 C   0  0
    3.8856   -8.2573    0.0000 C   0  0
  1  2  2  0
  2  3  1  0
  3  4  2  0
  4  5  1  0
  5  6  2  0
  6  7  1  0
  7  8  2  0
  8  9  1  0
  8 10  1  0
 10 11  1  0
 10 12  2  0
 12  5  1  0
  2 13  1  0
 13 14  1  0
 14 15  1  0
 15 16  2  0
 16 17  1  0
 17 18  2  0
 18 19  1  0
 19 20  2  0
 20 15  1  0
M  END
> <assay_chembl_id>
CHEMBL2444378

> <assay_description>
Cytotoxicity against human LNCAP cells assessed as reduction in cell viability after 24 hrs by WST-1 assay

> <document_journal>
Bioorg Med Chem

> <molecule_chembl_id>
CHEMBL133714

> <standard_value>
45600

> <IC50_uM>
45.6

> <Activity>
No

> <Canonical_Smiles>
O=C(/C=C/c1ccc(O)c(O)c1)OCc1ccccc1

$$$$

  SciTegic03142313312D

 19 20  0  0  0  0            999 V2000
    5.1937   -3.0093    0.0000 O   0  0
    3.8933   -3.7570    0.0000 C   0  0
    2.5951   -3.0039    0.0000 C   0  0
    2.5973   -1.5031    0.0000 C   0  0
    1.2990   -0.7500    0.0000 C   0  0
    1.2990    0.7500    0.0000 C   0  0
    0.0000    1.5000    0.0000 C   0  0
   -1.2990    0.7500    0.0000 C   0  0
   -2.5981    1.5000    0.0000 O   0  0
   -1.2990   -0.7500    0.0000 C   0  0
   -2.5981   -1.5000    0.0000 O   0  0
    0.0000   -1.5000    0.0000 C   0  0
    3.8912   -5.2578    0.0000 O   0  0
    5.1894   -6.0109    0.0000 C   0  0
    5.1895   -7.5109    0.0000 C   0  0
    6.4885   -8.2610    0.0000 C   0  0
    7.7875   -7.5110    0.0000 C   0  0
    7.7876   -6.0110    0.0000 C   0  0
    6.4885   -5.2610    0.0000 C   0  0
  1  2  2  0
  2  3  1  0
  3  4  2  0
  4  5  1  0
  5  6  2  0
  6  7  1  0
  7  8  2  0
  8  9  1  0
  8 10  1  0
 10 11  1  0
 10 12  2  0
 12  5  1  0
  2 13  1  0
 13 14  1  0
 14 15  2  0
 15 16  1  0
 16 17  2  0
 17 18  1  0
 18 19  2  0
 19 14  1  0
M  END
> <assay_chembl_id>
CHEMBL2444378

> <assay_description>
Cytotoxicity against human LNCAP cells assessed as reduction in cell viability after 24 hrs by WST-1 assay

> <document_journal>
Bioorg Med Chem

> <molecule_chembl_id>
CHEMBL471973

> <standard_value>
65900

> <IC50_uM>
65.9

> <Activity>
No

> <Canonical_Smiles>
O=C(/C=C/c1ccc(O)c(O)c1)Oc1ccccc1

$$$$

  SciTegic03142313312D

 18 18  0  0  0  0            999 V2000
    6.4833   -9.7648    0.0000 C   0  0
    6.4855   -8.2648    0.0000 C   0  0
    7.7858   -7.5171    0.0000 C   0  0
    5.1873   -7.5117    0.0000 C   0  0
    5.1894   -6.0109    0.0000 C   0  0
    3.8912   -5.2578    0.0000 O   0  0
    3.8933   -3.7570    0.0000 C   0  0
    5.1937   -3.0093    0.0000 O   0  0
    2.5951   -3.0039    0.0000 C   0  0
    2.5973   -1.5031    0.0000 C   0  0
    1.2990   -0.7500    0.0000 C   0  0
    1.2990    0.7500    0.0000 C   0  0
    0.0000    1.5000    0.0000 C   0  0
   -1.2990    0.7500    0.0000 C   0  0
   -2.5981    1.5000    0.0000 O   0  0
   -1.2990   -0.7500    0.0000 C   0  0
   -2.5981   -1.5000    0.0000 O   0  0
    0.0000   -1.5000    0.0000 C   0  0
  1  2  2  0
  2  3  1  0
  2  4  1  0
  4  5  1  0
  5  6  1  0
  6  7  1  0
  7  8  2  0
  7  9  1  0
  9 10  2  0
 10 11  1  0
 11 12  2  0
 12 13  1  0
 13 14  2  0
 14 15  1  0
 14 16  1  0
 16 17  1  0
 16 18  2  0
 18 11  1  0
M  END
> <assay_chembl_id>
CHEMBL2444378

> <assay_description>
Cytotoxicity against human LNCAP cells assessed as reduction in cell viability after 24 hrs by WST-1 assay

> <document_journal>
Bioorg Med Chem

> <molecule_chembl_id>
CHEMBL2441911

> <standard_value>
20600

> <IC50_uM>
20.6

> <Activity>
No

> <Canonical_Smiles>
C=C(C)CCOC(=O)/C=C/c1ccc(O)c(O)c1

$$$$

  SciTegic03142313312D

 18 18  0  0  0  0            999 V2000
    6.4833   -9.7648    0.0000 C   0  0
    6.4855   -8.2648    0.0000 C   0  0
    7.7858   -7.5171    0.0000 C   0  0
    5.1873   -7.5117    0.0000 C   0  0
    5.1894   -6.0109    0.0000 C   0  0
    3.8912   -5.2578    0.0000 O   0  0
    3.8933   -3.7570    0.0000 C   0  0
    5.1937   -3.0093    0.0000 O   0  0
    2.5951   -3.0039    0.0000 C   0  0
    2.5973   -1.5031    0.0000 C   0  0
    1.2990   -0.7500    0.0000 C   0  0
    1.2990    0.7500    0.0000 C   0  0
    0.0000    1.5000    0.0000 C   0  0
   -1.2990    0.7500    0.0000 C   0  0
   -2.5981    1.5000    0.0000 O   0  0
   -1.2990   -0.7500    0.0000 C   0  0
   -2.5981   -1.5000    0.0000 O   0  0
    0.0000   -1.5000    0.0000 C   0  0
  1  2  1  0
  2  3  1  0
  2  4  1  0
  4  5  1  0
  5  6  1  0
  6  7  1  0
  7  8  2  0
  7  9  1  0
  9 10  2  0
 10 11  1  0
 11 12  2  0
 12 13  1  0
 13 14  2  0
 14 15  1  0
 14 16  1  0
 16 17  1  0
 16 18  2  0
 18 11  1  0
M  END
> <assay_chembl_id>
CHEMBL2444378

> <assay_description>
Cytotoxicity against human LNCAP cells assessed as reduction in cell viability after 24 hrs by WST-1 assay

> <document_journal>
Bioorg Med Chem

> <molecule_chembl_id>
CHEMBL490372

> <standard_value>
45400

> <IC50_uM>
45.4

> <Activity>
No

> <Canonical_Smiles>
CC(C)CCOC(=O)/C=C/c1ccc(O)c(O)c1

$$$$

  SciTegic03142313312D

 17 17  0  0  0  0            999 V2000
    6.4833   -9.7648    0.0000 C   0  0
    6.4855   -8.2648    0.0000 C   0  0
    5.1873   -7.5117    0.0000 C   0  0
    5.1894   -6.0109    0.0000 C   0  0
    3.8912   -5.2578    0.0000 O   0  0
    3.8933   -3.7570    0.0000 C   0  0
    5.1937   -3.0093    0.0000 O   0  0
    2.5951   -3.0039    0.0000 C   0  0
    2.5973   -1.5031    0.0000 C   0  0
    1.2990   -0.7500    0.0000 C   0  0
    1.2990    0.7500    0.0000 C   0  0
    0.0000    1.5000    0.0000 C   0  0
   -1.2990    0.7500    0.0000 C   0  0
   -2.5981    1.5000    0.0000 O   0  0
   -1.2990   -0.7500    0.0000 C   0  0
   -2.5981   -1.5000    0.0000 O   0  0
    0.0000   -1.5000    0.0000 C   0  0
  1  2  1  0
  2  3  1  0
  3  4  1  0
  4  5  1  0
  5  6  1  0
  6  7  2  0
  6  8  1  0
  8  9  2  0
  9 10  1  0
 10 11  2  0
 11 12  1  0
 12 13  2  0
 13 14  1  0
 13 15  1  0
 15 16  1  0
 15 17  2  0
 17 10  1  0
M  END
> <assay_chembl_id>
CHEMBL2444378

> <assay_description>
Cytotoxicity against human LNCAP cells assessed as reduction in cell viability after 24 hrs by WST-1 assay

> <document_journal>
Bioorg Med Chem

> <molecule_chembl_id>
CHEMBL29489

> <standard_value>
45400

> <IC50_uM>
45.4

> <Activity>
No

> <Canonical_Smiles>
CCCCOC(=O)/C=C/c1ccc(O)c(O)c1

$$$$

  SciTegic03142313312D

 16 16  0  0  0  0            999 V2000
    5.1873   -7.5109    0.0000 C   0  0
    5.1894   -6.0109    0.0000 C   0  0
    6.4897   -5.2632    0.0000 C   0  0
    3.8912   -5.2578    0.0000 O   0  0
    3.8933   -3.7570    0.0000 C   0  0
    5.1937   -3.0093    0.0000 O   0  0
    2.5951   -3.0039    0.0000 C   0  0
    2.5973   -1.5031    0.0000 C   0  0
    1.2990   -0.7500    0.0000 C   0  0
    1.2990    0.7500    0.0000 C   0  0
    0.0000    1.5000    0.0000 C   0  0
   -1.2990    0.7500    0.0000 C   0  0
   -2.5981    1.5000    0.0000 O   0  0
   -1.2990   -0.7500    0.0000 C   0  0
   -2.5981   -1.5000    0.0000 O   0  0
    0.0000   -1.5000    0.0000 C   0  0
  1  2  1  0
  2  3  1  0
  2  4  1  0
  4  5  1  0
  5  6  2  0
  5  7  1  0
  7  8  2  0
  8  9  1  0
  9 10  2  0
 10 11  1  0
 11 12  2  0
 12 13  1  0
 12 14  1  0
 14 15  1  0
 14 16  2  0
 16  9  1  0
M  END
> <assay_chembl_id>
CHEMBL2444378

> <assay_description>
Cytotoxicity against human LNCAP cells assessed as reduction in cell viability after 24 hrs by WST-1 assay

> <document_journal>
Bioorg Med Chem

> <molecule_chembl_id>
CHEMBL481890

> <standard_value>
51900

> <IC50_uM>
51.9

> <Activity>
No

> <Canonical_Smiles>
CC(C)OC(=O)/C=C/c1ccc(O)c(O)c1

$$$$

  SciTegic03142313312D

 16 16  0  0  0  0            999 V2000
    6.4848   -8.2644    0.0000 C   0  0
    5.1873   -7.5117    0.0000 C   0  0
    5.1894   -6.0109    0.0000 C   0  0
    3.8912   -5.2578    0.0000 O   0  0
    3.8933   -3.7570    0.0000 C   0  0
    5.1937   -3.0093    0.0000 O   0  0
    2.5951   -3.0039    0.0000 C   0  0
    2.5973   -1.5031    0.0000 C   0  0
    1.2990   -0.7500    0.0000 C   0  0
    1.2990    0.7500    0.0000 C   0  0
    0.0000    1.5000    0.0000 C   0  0
   -1.2990    0.7500    0.0000 C   0  0
   -2.5981    1.5000    0.0000 O   0  0
   -1.2990   -0.7500    0.0000 C   0  0
   -2.5981   -1.5000    0.0000 O   0  0
    0.0000   -1.5000    0.0000 C   0  0
  1  2  1  0
  2  3  1  0
  3  4  1  0
  4  5  1  0
  5  6  2  0
  5  7  1  0
  7  8  2  0
  8  9  1  0
  9 10  2  0
 10 11  1  0
 11 12  2  0
 12 13  1  0
 12 14  1  0
 14 15  1  0
 14 16  2  0
 16  9  1  0
M  END
> <assay_chembl_id>
CHEMBL2444378

> <assay_description>
Cytotoxicity against human LNCAP cells assessed as reduction in cell viability after 24 hrs by WST-1 assay

> <document_journal>
Bioorg Med Chem

> <molecule_chembl_id>
CHEMBL17362

> <standard_value>
60700

> <IC50_uM>
60.7

> <Activity>
No

> <Canonical_Smiles>
CCCOC(=O)/C=C/c1ccc(O)c(O)c1

$$$$

  SciTegic03142313312D

 21 22  0  0  0  0            999 V2000
    5.1937   -3.0093    0.0000 O   0  0
    3.8933   -3.7570    0.0000 C   0  0
    2.5951   -3.0039    0.0000 C   0  0
    2.5973   -1.5031    0.0000 C   0  0
    1.2990   -0.7500    0.0000 C   0  0
    1.2990    0.7500    0.0000 C   0  0
    0.0000    1.5000    0.0000 C   0  0
   -1.2990    0.7500    0.0000 C   0  0
   -2.5981    1.5000    0.0000 O   0  0
   -1.2990   -0.7500    0.0000 C   0  0
   -2.5981   -1.5000    0.0000 O   0  0
    0.0000   -1.5000    0.0000 C   0  0
    3.8912   -5.2578    0.0000 O   0  0
    5.1894   -6.0109    0.0000 C   0  0
    5.1873   -7.5117    0.0000 C   0  0
    6.4855   -8.2648    0.0000 C   0  0
    6.4855   -9.7648    0.0000 C   0  0
    7.7846  -10.5149    0.0000 C   0  0
    9.0836   -9.7649    0.0000 C   0  0
    9.0836   -8.2649    0.0000 C   0  0
    7.7846   -7.5149    0.0000 C   0  0
  1  2  2  0
  2  3  1  0
  3  4  2  0
  4  5  1  0
  5  6  2  0
  6  7  1  0
  7  8  2  0
  8  9  1  0
  8 10  1  0
 10 11  1  0
 10 12  2  0
 12  5  1  0
  2 13  1  0
 13 14  1  0
 14 15  1  0
 15 16  1  0
 16 17  2  0
 17 18  1  0
 18 19  2  0
 19 20  1  0
 20 21  2  0
 21 16  1  0
M  END
> <assay_chembl_id>
CHEMBL2444378

> <assay_description>
Cytotoxicity against human LNCAP cells assessed as reduction in cell viability after 24 hrs by WST-1 assay

> <document_journal>
Bioorg Med Chem

> <molecule_chembl_id>
CHEMBL319244

> <standard_value>
33700

> <IC50_uM>
33.7

> <Activity>
No

> <Canonical_Smiles>
O=C(/C=C/c1ccc(O)c(O)c1)OCCc1ccccc1

$$$$

  SciTegic03142313312D

 74 73  0  0  1  0            999 V2000
    0.0007    0.0004    0.0000 C   0  0
    1.3000    0.7500    0.0000 C   0  0
    2.6000    0.0000    0.0000 C   0  0
    3.9000    0.7500    0.0000 C   0  0
    5.2000    0.0000    0.0000 C   0  0  2  0  0  0
    5.1969   -1.5008    0.0000 N   0  0
    3.8961   -2.2494    0.0000 C   0  0
    2.5983   -1.4971    0.0000 C   0  0
    3.8930   -3.7494    0.0000 O   0  0
    6.5000    0.7500    0.0000 C   0  0
    6.5000    1.7500    0.0000 O   0  0
    7.7999    0.0000    0.0000 N   0  0
    9.0999    0.7500    0.0000 C   0  0  1  0  0  0
    9.0968    2.2508    0.0000 C   0  0
    7.7960    2.9994    0.0000 C   0  0
    7.7929    4.4994    0.0000 C   0  0
    6.9309    2.4979    0.0000 C   0  0
   10.3999    0.0000    0.0000 C   0  0
   10.3999   -1.0000    0.0000 O   0  0
   11.6999    0.7500    0.0000 N   0  0
   12.9999    0.0000    0.0000 C   0  0  1  0  0  0
   12.9968   -1.5008    0.0000 C   0  0
   11.6960   -2.2494    0.0000 C   0  0
   11.6929   -3.7494    0.0000 C   0  0
   10.8308   -1.7479    0.0000 C   0  0
   14.2999    0.7500    0.0000 C   0  0
   14.2999    2.2500    0.0000 O   0  0
   15.5999    0.0000    0.0000 N   0  0
   16.8999    0.7500    0.0000 C   0  0  1  0  0  0
   16.8968    2.2508    0.0000 C   0  0
   15.5960    2.9994    0.0000 C   0  0
   15.5929    4.5002    0.0000 C   0  0
   14.2928    5.2484    0.0000 C   0  0
   18.1999    0.0000    0.0000 C   0  0
   18.1999   -1.5000    0.0000 O   0  0
   19.4998    0.7500    0.0000 N   0  0
   20.7998    0.0000    0.0000 C   0  0  1  0  0  0
   20.7968   -1.5008    0.0000 C   0  0
   19.4959   -2.2494    0.0000 C   0  0
   19.4928   -3.7502    0.0000 C   0  0
   18.1920   -4.4988    0.0000 N   0  0
   18.1889   -5.9996    0.0000 C   0  0
   16.8888   -6.7477    0.0000 N   0  0
   19.4867   -6.7519    0.0000 N   0  0
   22.0998    0.7500    0.0000 C   0  0
   22.0998    2.2500    0.0000 O   0  0
   23.3998    0.0000    0.0000 N   0  0
   24.6998    0.7500    0.0000 C   0  0  2  0  0  0
   25.9998    0.0000    0.0000 C   0  0
   25.9998   -1.5000    0.0000 O   0  0
   27.2998    0.7500    0.0000 N   0  0
   28.5998    0.0000    0.0000 C   0  0  1  0  0  0
   28.5967   -1.5008    0.0000 C   0  0
   27.2959   -2.2494    0.0000 C   0  0
   27.2928   -3.7502    0.0000 C   0  0
   25.9920   -4.4988    0.0000 C   0  0
   25.9889   -5.9988    0.0000 N   0  0
   29.8998    0.7500    0.0000 C   0  0
   29.8998    2.2500    0.0000 O   0  0
   31.1998    0.0000    0.0000 N   0  0
   32.4998    0.7500    0.0000 C   0  0  1  0  0  0
   33.7997    0.0000    0.0000 C   0  0
   35.0997    0.7500    0.0000 C   0  0
   36.3997    0.0000    0.0000 C   0  0
   37.6997    0.7500    0.0000 N   0  0
   38.9997    0.0000    0.0000 C   0  0
   40.2990    0.7496    0.0000 N   0  0
   38.9997   -1.5000    0.0000 N   0  0
   32.5028    2.2508    0.0000 C   0  0
   31.2051    3.0031    0.0000 N   0  0
   33.8029    2.9990    0.0000 O   0  0
   24.7029    2.2508    0.0000 C   0  0
   26.0030    2.9990    0.0000 C   0  0
   23.4052    3.0031    0.0000 C   0  0
  1  2  1  0
  2  3  1  0
  3  4  1  0
  5  4  1  1
  5  6  1  0
  6  7  1  0
  7  8  1  0
  7  9  2  0
  5 10  1  0
 10 11  2  0
 10 12  1  0
 13 12  1  1
 13 14  1  0
 14 15  1  0
 15 16  1  0
 15 17  1  0
 13 18  1  0
 18 19  2  0
 18 20  1  0
 21 20  1  6
 21 22  1  0
 22 23  1  0
 23 24  1  0
 23 25  1  0
 21 26  1  0
 26 27  2  0
 26 28  1  0
 29 28  1  1
 29 30  1  0
 30 31  1  0
 31 32  1  0
 32 33  1  0
 29 34  1  0
 34 35  2  0
 34 36  1  0
 37 36  1  6
 37 38  1  0
 38 39  1  0
 39 40  1  0
 40 41  1  0
 41 42  1  0
 42 43  2  0
 42 44  1  0
 37 45  1  0
 45 46  2  0
 45 47  1  0
 48 47  1  1
 48 49  1  0
 49 50  2  0
 49 51  1  0
 52 51  1  6
 52 53  1  0
 53 54  1  0
 54 55  1  0
 55 56  1  0
 56 57  1  0
 52 58  1  0
 58 59  2  0
 58 60  1  0
 61 60  1  6
 61 62  1  0
 62 63  1  0
 63 64  1  0
 64 65  1  0
 65 66  1  0
 66 67  2  0
 66 68  1  0
 61 69  1  0
 69 70  1  0
 69 71  2  0
 48 72  1  0
 72 73  1  0
 72 74  1  0
M  END
> <assay_chembl_id>
CHEMBL3117746

> <assay_description>
Cytotoxicity against human LNCAP cells after 72 hrs by MTT assay

> <document_journal>
J Med Chem

> <molecule_chembl_id>
CHEMBL3115764

> <standard_value>
90000

> <IC50_uM>
90

> <Activity>
No

> <Canonical_Smiles>
CCCC[C@H](NC(C)=O)C(=O)N[C@@H](CC(C)C)C(=O)N[C@@H](CC(C)C)C(=O)N[C@@H](CCCC)C(=O)N[C@@H](CCCNC(=N)N)C(=O)N[C@H](C(=O)N[C@@H](CCCCN)C(=O)N[C@@H](CCCNC(=N)N)C(N)=O)C(C)C

$$$$

  SciTegic03142313312D

 73 73  0  0  1  0            999 V2000
   15.9850  -28.2954    0.0000 C   0  0
   16.8519  -27.7969    0.0000 C   0  0
   18.1494  -28.5495    0.0000 O   0  0
   16.8540  -26.2961    0.0000 N   0  0
   15.5558  -25.5430    0.0000 C   0  0  1  0  0  0
   14.2563  -26.2938    0.0000 C   0  0
   14.2558  -27.7946    0.0000 C   0  0
   12.9570  -28.5450    0.0000 C   0  0
   15.1219  -28.2946    0.0000 C   0  0
   15.5580  -24.0422    0.0000 C   0  0
   16.4249  -23.5437    0.0000 O   0  0
   14.2598  -23.2891    0.0000 N   0  0
   14.2619  -21.7882    0.0000 C   0  0  1  0  0  0
   15.5645  -21.0428    0.0000 C   0  0
   16.8619  -21.7973    0.0000 C   0  0
   18.1638  -21.0522    0.0000 C   0  0
   16.8584  -22.7973    0.0000 C   0  0
   12.9637  -21.0352    0.0000 C   0  0
   12.0968  -21.5337    0.0000 O   0  0
   12.9658  -19.5343    0.0000 N   0  0
   11.6676  -18.7813    0.0000 C   0  0  1  0  0  0
   10.3681  -19.5321    0.0000 C   0  0
   10.3676  -21.0329    0.0000 C   0  0
    9.0688  -21.7833    0.0000 C   0  0
   11.2337  -21.5329    0.0000 C   0  0
   11.6698  -17.2804    0.0000 C   0  0
   12.5367  -16.7819    0.0000 O   0  0
   10.3716  -16.5273    0.0000 N   0  0
   10.3737  -15.0265    0.0000 C   0  0  1  0  0  0
   11.6763  -14.2810    0.0000 C   0  0
   12.9737  -15.0356    0.0000 C   0  0
   14.2755  -14.2905    0.0000 C   0  0
   12.9702  -16.0356    0.0000 C   0  0
    9.0755  -14.2734    0.0000 C   0  0
    7.7751  -15.0212    0.0000 O   0  0
    9.0776  -12.7726    0.0000 N   0  0
    7.7794  -12.0195    0.0000 C   0  0  1  0  0  0
    6.4799  -12.7704    0.0000 C   0  0
    6.4794  -14.2712    0.0000 C   0  0
    5.1799  -15.0220    0.0000 C   0  0
    5.1794  -16.5228    0.0000 N   0  0
    3.8799  -17.2737    0.0000 C   0  0
    3.8794  -18.7737    0.0000 N   0  0
    2.5809  -16.5237    0.0000 N   0  0
    7.7815  -10.5187    0.0000 C   0  0
    9.0819   -9.7710    0.0000 O   0  0
    6.4833   -9.7656    0.0000 N   0  0
    6.4855   -8.2648    0.0000 C   0  0  2  0  0  0
    5.1873   -7.5117    0.0000 C   0  0
    3.8869   -8.2595    0.0000 O   0  0
    5.1894   -6.0109    0.0000 N   0  0
    3.8912   -5.2578    0.0000 C   0  0  1  0  0  0
    2.5917   -6.0086    0.0000 C   0  0
    2.5912   -7.5095    0.0000 C   0  0
    1.2917   -8.2603    0.0000 C   0  0
    1.2912   -9.7611    0.0000 C   0  0
   -0.0076  -10.5115    0.0000 N   0  0
    3.8933   -3.7570    0.0000 C   0  0
    5.1937   -3.0093    0.0000 O   0  0
    2.5951   -3.0039    0.0000 N   0  0
    2.5973   -1.5031    0.0000 C   0  0
    1.2990   -0.7500    0.0000 C   0  0
    1.2990    0.7500    0.0000 C   0  0
    0.0000    1.5000    0.0000 C   0  0
   -1.2990    0.7500    0.0000 C   0  0
   -2.6003    1.4977    0.0000 C   0  0
   -3.8983    0.7459    0.0000 N   0  0
   -2.6030    2.9977    0.0000 N   0  0
   -1.2990   -0.7500    0.0000 C   0  0
    0.0000   -1.5000    0.0000 C   0  0
    7.7850   -7.5140    0.0000 C   0  0
    7.7855   -6.0140    0.0000 C   0  0
    9.0840   -8.2640    0.0000 C   0  0
  1  2  1  0
  2  3  2  0
  2  4  1  0
  5  4  1  1
  5  6  1  0
  6  7  1  0
  7  8  1  0
  7  9  1  0
  5 10  1  0
 10 11  2  0
 10 12  1  0
 13 12  1  6
 13 14  1  0
 14 15  1  0
 15 16  1  0
 15 17  1  0
 13 18  1  0
 18 19  2  0
 18 20  1  0
 21 20  1  1
 21 22  1  0
 22 23  1  0
 23 24  1  0
 23 25  1  0
 21 26  1  0
 26 27  2  0
 26 28  1  0
 29 28  1  6
 29 30  1  0
 30 31  1  0
 31 32  1  0
 31 33  1  0
 29 34  1  0
 34 35  2  0
 34 36  1  0
 37 36  1  1
 37 38  1  0
 38 39  1  0
 39 40  1  0
 40 41  1  0
 41 42  1  0
 42 43  2  0
 42 44  1  0
 37 45  1  0
 45 46  2  0
 45 47  1  0
 48 47  1  6
 48 49  1  0
 49 50  2  0
 49 51  1  0
 52 51  1  1
 52 53  1  0
 53 54  1  0
 54 55  1  0
 55 56  1  0
 56 57  1  0
 52 58  1  0
 58 59  2  0
 58 60  1  0
 60 61  1  0
 61 62  1  0
 62 63  2  0
 63 64  1  0
 64 65  2  0
 65 66  1  0
 66 67  2  0
 66 68  1  0
 65 69  1  0
 69 70  2  0
 70 62  1  0
 48 71  1  0
 71 72  1  0
 71 73  1  0
M  END
> <assay_chembl_id>
CHEMBL3117746

> <assay_description>
Cytotoxicity against human LNCAP cells after 72 hrs by MTT assay

> <document_journal>
J Med Chem

> <molecule_chembl_id>
CHEMBL3115771

> <standard_value>
40000

> <IC50_uM>
40

> <Activity>
No

> <Canonical_Smiles>
CC(=O)N[C@@H](CC(C)C)C(=O)N[C@@H](CC(C)C)C(=O)N[C@@H](CC(C)C)C(=O)N[C@@H](CC(C)C)C(=O)N[C@@H](CCCNC(=N)N)C(=O)N[C@H](C(=O)N[C@@H](CCCCN)C(=O)NCc1ccc(C(=N)N)cc1)C(C)C

$$$$

  SciTegic03142313312D

 71 70  0  0  1  0            999 V2000
    1.3000    1.7500    0.0000 C   0  0
    1.3000    0.7500    0.0000 C   0  0
    0.0007    0.0004    0.0000 O   0  0
    2.6000    0.0000    0.0000 N   0  0
    3.9000    0.7500    0.0000 C   0  0  1  0  0  0
    3.8969    2.2508    0.0000 C   0  0
    2.5961    2.9994    0.0000 C   0  0
    2.5930    4.4994    0.0000 C   0  0
    1.7309    2.4979    0.0000 C   0  0
    5.2000    0.0000    0.0000 C   0  0
    5.2000   -1.0000    0.0000 O   0  0
    6.5000    0.7500    0.0000 N   0  0
    7.7999    0.0000    0.0000 C   0  0  1  0  0  0
    7.7969   -1.5008    0.0000 C   0  0
    6.4960   -2.2494    0.0000 C   0  0
    6.4929   -3.7494    0.0000 C   0  0
    5.6309   -1.7479    0.0000 C   0  0
    9.0999    0.7500    0.0000 C   0  0
    9.0999    1.7500    0.0000 O   0  0
   10.3999    0.0000    0.0000 N   0  0
   11.6999    0.7500    0.0000 C   0  0  1  0  0  0
   11.6968    2.2508    0.0000 C   0  0
   10.3960    2.9994    0.0000 C   0  0
   10.3929    4.4994    0.0000 C   0  0
    9.5309    2.4979    0.0000 C   0  0
   12.9999    0.0000    0.0000 C   0  0
   12.9999   -1.0000    0.0000 O   0  0
   14.2999    0.7500    0.0000 N   0  0
   15.5999    0.0000    0.0000 C   0  0  1  0  0  0
   15.5968   -1.5008    0.0000 C   0  0
   14.2960   -2.2494    0.0000 C   0  0
   14.2929   -3.7494    0.0000 C   0  0
   13.4308   -1.7479    0.0000 C   0  0
   16.8999    0.7500    0.0000 C   0  0
   16.8999    2.2500    0.0000 O   0  0
   18.1999    0.0000    0.0000 N   0  0
   19.4998    0.7500    0.0000 C   0  0  1  0  0  0
   19.4968    2.2508    0.0000 C   0  0
   18.1959    2.9994    0.0000 C   0  0
   18.1929    4.5002    0.0000 C   0  0
   16.8920    5.2488    0.0000 N   0  0
   16.8889    6.7496    0.0000 C   0  0
   15.5888    7.4977    0.0000 N   0  0
   18.1867    7.5019    0.0000 N   0  0
   20.7998    0.0000    0.0000 C   0  0
   20.7998   -1.5000    0.0000 O   0  0
   22.0998    0.7500    0.0000 N   0  0
   23.3998    0.0000    0.0000 C   0  0  2  0  0  0
   24.6998    0.7500    0.0000 C   0  0
   24.6998    2.2500    0.0000 O   0  0
   25.9998    0.0000    0.0000 N   0  0
   27.2998    0.7500    0.0000 C   0  0  1  0  0  0
   27.2967    2.2508    0.0000 C   0  0
   25.9959    2.9994    0.0000 C   0  0
   25.9928    4.5002    0.0000 C   0  0
   24.6920    5.2488    0.0000 C   0  0
   24.6889    6.7488    0.0000 N   0  0
   28.5998    0.0000    0.0000 C   0  0
   28.5998   -1.5000    0.0000 O   0  0
   29.8998    0.7500    0.0000 N   0  0
   31.1998    0.0000    0.0000 C   0  0
   32.4998    0.7500    0.0000 C   0  0
   33.7997    0.0000    0.0000 C   0  0
   35.0997    0.7500    0.0000 C   0  0
   36.3997    0.0000    0.0000 N   0  0
   37.6997    0.7500    0.0000 C   0  0
   38.9990    0.0004    0.0000 N   0  0
   37.6997    2.2500    0.0000 N   0  0
   23.4029   -1.5008    0.0000 C   0  0
   24.7030   -2.2490    0.0000 C   0  0
   22.1052   -2.2531    0.0000 C   0  0
  1  2  1  0
  2  3  2  0
  2  4  1  0
  5  4  1  1
  5  6  1  0
  6  7  1  0
  7  8  1  0
  7  9  1  0
  5 10  1  0
 10 11  2  0
 10 12  1  0
 13 12  1  6
 13 14  1  0
 14 15  1  0
 15 16  1  0
 15 17  1  0
 13 18  1  0
 18 19  2  0
 18 20  1  0
 21 20  1  1
 21 22  1  0
 22 23  1  0
 23 24  1  0
 23 25  1  0
 21 26  1  0
 26 27  2  0
 26 28  1  0
 29 28  1  6
 29 30  1  0
 30 31  1  0
 31 32  1  0
 31 33  1  0
 29 34  1  0
 34 35  2  0
 34 36  1  0
 37 36  1  1
 37 38  1  0
 38 39  1  0
 39 40  1  0
 40 41  1  0
 41 42  1  0
 42 43  2  0
 42 44  1  0
 37 45  1  0
 45 46  2  0
 45 47  1  0
 48 47  1  6
 48 49  1  0
 49 50  2  0
 49 51  1  0
 52 51  1  1
 52 53  1  0
 53 54  1  0
 54 55  1  0
 55 56  1  0
 56 57  1  0
 52 58  1  0
 58 59  2  0
 58 60  1  0
 60 61  1  0
 61 62  1  0
 62 63  2  0
 63 64  1  0
 64 65  1  0
 65 66  1  0
 66 67  2  0
 66 68  1  0
 48 69  1  0
 69 70  1  0
 69 71  1  0
M  END
> <assay_chembl_id>
CHEMBL3117746

> <assay_description>
Cytotoxicity against human LNCAP cells after 72 hrs by MTT assay

> <document_journal>
J Med Chem

> <molecule_chembl_id>
CHEMBL3115770

> <standard_value>
70000

> <IC50_uM>
70

> <Activity>
No

> <Canonical_Smiles>
CC(=O)N[C@@H](CC(C)C)C(=O)N[C@@H](CC(C)C)C(=O)N[C@@H](CC(C)C)C(=O)N[C@@H](CC(C)C)C(=O)N[C@@H](CCCNC(=N)N)C(=O)N[C@H](C(=O)N[C@@H](CCCCN)C(=O)NC/C=C/CNC(=N)N)C(C)C

$$$$

  SciTegic03142313312D

 74 73  0  0  1  0            999 V2000
    0.0007    0.0004    0.0000 C   0  0
    1.3000    0.7500    0.0000 C   0  0
    2.6000    0.0000    0.0000 C   0  0
    3.9000    0.7500    0.0000 C   0  0
    5.2000    0.0000    0.0000 C   0  0  1  0  0  0
    5.1969   -1.5008    0.0000 N   0  0
    3.8961   -2.2494    0.0000 C   0  0
    2.5983   -1.4971    0.0000 C   0  0
    3.8930   -3.7494    0.0000 O   0  0
    6.5000    0.7500    0.0000 C   0  0
    6.5000    1.7500    0.0000 O   0  0
    7.7999    0.0000    0.0000 N   0  0
    9.0999    0.7500    0.0000 C   0  0  1  0  0  0
    9.0968    2.2508    0.0000 C   0  0
    7.7960    2.9994    0.0000 C   0  0
    7.7929    4.4994    0.0000 C   0  0
    6.9309    2.4979    0.0000 C   0  0
   10.3999    0.0000    0.0000 C   0  0
   10.3999   -1.0000    0.0000 O   0  0
   11.6999    0.7500    0.0000 N   0  0
   12.9999    0.0000    0.0000 C   0  0  1  0  0  0
   12.9968   -1.5008    0.0000 C   0  0
   11.6960   -2.2494    0.0000 C   0  0
   11.6929   -3.7494    0.0000 C   0  0
   10.8308   -1.7479    0.0000 C   0  0
   14.2999    0.7500    0.0000 C   0  0
   14.2999    1.7500    0.0000 O   0  0
   15.5999    0.0000    0.0000 N   0  0
   16.8999    0.7500    0.0000 C   0  0  1  0  0  0
   16.8968    2.2508    0.0000 C   0  0
   15.5960    2.9994    0.0000 C   0  0
   15.5929    4.4994    0.0000 C   0  0
   14.7308    2.4979    0.0000 C   0  0
   18.1999    0.0000    0.0000 C   0  0
   18.1999   -1.5000    0.0000 O   0  0
   19.4998    0.7500    0.0000 N   0  0
   20.7998    0.0000    0.0000 C   0  0  1  0  0  0
   20.7968   -1.5008    0.0000 C   0  0
   19.4959   -2.2494    0.0000 C   0  0
   19.4928   -3.7502    0.0000 C   0  0
   18.1920   -4.4988    0.0000 N   0  0
   18.1889   -5.9996    0.0000 C   0  0
   16.8888   -6.7477    0.0000 N   0  0
   19.4867   -6.7519    0.0000 N   0  0
   22.0998    0.7500    0.0000 C   0  0
   22.0998    2.2500    0.0000 O   0  0
   23.3998    0.0000    0.0000 N   0  0
   24.6998    0.7500    0.0000 C   0  0  2  0  0  0
   25.9998    0.0000    0.0000 C   0  0
   25.9998   -1.5000    0.0000 O   0  0
   27.2998    0.7500    0.0000 N   0  0
   28.5998    0.0000    0.0000 C   0  0  1  0  0  0
   28.5967   -1.5008    0.0000 C   0  0
   27.2959   -2.2494    0.0000 C   0  0
   27.2928   -3.7502    0.0000 C   0  0
   25.9920   -4.4988    0.0000 C   0  0
   25.9889   -5.9988    0.0000 N   0  0
   29.8998    0.7500    0.0000 C   0  0
   29.8998    2.2500    0.0000 O   0  0
   31.1998    0.0000    0.0000 N   0  0
   32.4998    0.7500    0.0000 C   0  0  1  0  0  0
   33.7997    0.0000    0.0000 C   0  0
   35.0997    0.7500    0.0000 C   0  0
   36.3997    0.0000    0.0000 C   0  0
   37.6997    0.7500    0.0000 N   0  0
   38.9997    0.0000    0.0000 C   0  0
   40.2990    0.7496    0.0000 N   0  0
   38.9997   -1.5000    0.0000 N   0  0
   32.5028    2.2508    0.0000 C   0  0
   31.2051    3.0031    0.0000 N   0  0
   33.8029    2.9990    0.0000 O   0  0
   24.7029    2.2508    0.0000 C   0  0
   26.0030    2.9990    0.0000 C   0  0
   23.4052    3.0031    0.0000 C   0  0
  1  2  1  0
  2  3  1  0
  3  4  1  0
  5  4  1  6
  5  6  1  0
  6  7  1  0
  7  8  1  0
  7  9  2  0
  5 10  1  0
 10 11  2  0
 10 12  1  0
 13 12  1  1
 13 14  1  0
 14 15  1  0
 15 16  1  0
 15 17  1  0
 13 18  1  0
 18 19  2  0
 18 20  1  0
 21 20  1  6
 21 22  1  0
 22 23  1  0
 23 24  1  0
 23 25  1  0
 21 26  1  0
 26 27  2  0
 26 28  1  0
 29 28  1  1
 29 30  1  0
 30 31  1  0
 31 32  1  0
 31 33  1  0
 29 34  1  0
 34 35  2  0
 34 36  1  0
 37 36  1  6
 37 38  1  0
 38 39  1  0
 39 40  1  0
 40 41  1  0
 41 42  1  0
 42 43  2  0
 42 44  1  0
 37 45  1  0
 45 46  2  0
 45 47  1  0
 48 47  1  1
 48 49  1  0
 49 50  2  0
 49 51  1  0
 52 51  1  6
 52 53  1  0
 53 54  1  0
 54 55  1  0
 55 56  1  0
 56 57  1  0
 52 58  1  0
 58 59  2  0
 58 60  1  0
 61 60  1  6
 61 62  1  0
 62 63  1  0
 63 64  1  0
 64 65  1  0
 65 66  1  0
 66 67  2  0
 66 68  1  0
 61 69  1  0
 69 70  1  0
 69 71  2  0
 48 72  1  0
 72 73  1  0
 72 74  1  0
M  END
> <assay_chembl_id>
CHEMBL3117746

> <assay_description>
Cytotoxicity against human LNCAP cells after 72 hrs by MTT assay

> <document_journal>
J Med Chem

> <molecule_chembl_id>
CHEMBL3115769

> <standard_value>
90000

> <IC50_uM>
90

> <Activity>
No

> <Canonical_Smiles>
CCCC[C@@H](NC(C)=O)C(=O)N[C@@H](CC(C)C)C(=O)N[C@@H](CC(C)C)C(=O)N[C@@H](CC(C)C)C(=O)N[C@@H](CCCNC(=N)N)C(=O)N[C@H](C(=O)N[C@@H](CCCCN)C(=O)N[C@@H](CCCNC(=N)N)C(N)=O)C(C)C

$$$$

  SciTegic03142313312D

 37 40  0  0  0  0            999 V2000
   12.9889   -3.0019    0.0000 C   0  0
   12.9933   -1.5019    0.0000 O   0  0
   11.6963   -0.7468    0.0000 C   0  0
   11.6987    0.7532    0.0000 C   0  0
   10.4008    1.5052    0.0000 C   0  0
    9.1006    0.7573    0.0000 C   0  0
    9.0981   -0.7428    0.0000 C   0  0
    7.7985   -1.4932    0.0000 C   0  0
    6.4994   -0.7432    0.0000 C   0  0
    5.2003   -1.4932    0.0000 C   0  0
    3.8990   -0.7455    0.0000 C   0  0
    3.8964    0.7545    0.0000 O   0  0
    2.6003   -1.4977    0.0000 N   0  0
    1.2990   -0.7500    0.0000 C   0  0
    1.2990    0.7500    0.0000 C   0  0
    0.0000    1.5000    0.0000 C   0  0
    0.0000    3.0000    0.0000 C   0  0
   -1.2991    3.7500    0.0000 C   0  0
   -1.2960    5.2508    0.0000 O   0  0
    0.0041    5.9990    0.0000 C   0  0
   -2.5981    3.0000    0.0000 C   0  0
   -3.8994    3.7477    0.0000 O   0  0
   -5.1981    2.9954    0.0000 C   0  0
   -5.1955    1.4955    0.0000 C   0  0
   -6.4987    3.7428    0.0000 O   0  0
   -2.5981    1.5000    0.0000 C   0  0
   -3.8971    0.7500    0.0000 C   0  0
   -1.2990    0.7500    0.0000 C   0  0
   -1.2990   -0.7500    0.0000 O   0  0
    0.0000   -1.5000    0.0000 C   0  0
    0.0000   -3.0000    0.0000 O   0  0
    5.2004   -2.9933    0.0000 C   0  0
    6.4995   -3.7432    0.0000 C   0  0
    7.7985   -2.9932    0.0000 C   0  0
    9.0967   -3.7463    0.0000 O   0  0
    9.0946   -5.2463    0.0000 C   0  0
   10.3961   -1.4948    0.0000 C   0  0
  1  2  1  0
  2  3  1  0
  3  4  2  0
  4  5  1  0
  5  6  2  0
  6  7  1  0
  7  8  1  0
  8  9  2  0
  9 10  1  0
 10 11  1  0
 11 12  2  0
 11 13  1  0
 13 14  1  0
 14 15  2  0
 15 16  1  0
 16 17  2  0
 17 18  1  0
 18 19  1  0
 19 20  1  0
 18 21  2  0
 21 22  1  0
 22 23  1  0
 23 24  1  0
 23 25  2  0
 21 26  1  0
 26 27  1  0
 26 28  2  0
 28 16  1  0
 28 29  1  0
 29 30  1  0
 30 14  1  0
 30 31  2  0
 10 32  2  0
 32 33  1  0
 33 34  2  0
 34  8  1  0
 34 35  1  0
 35 36  1  0
  7 37  2  0
 37  3  1  0
M  END
> <assay_chembl_id>
CHEMBL3227704

> <assay_description>
Inhibition of human LNCAP cell proliferation

> <document_journal>
Medchemcomm

> <molecule_chembl_id>
CHEMBL1652176

> <standard_value>
420

> <IC50_uM>
0.42

> <Activity>
Yes

> <Canonical_Smiles>
COc1cccc(-c2cc(C(=O)Nc3cc4cc(OC)c(OC(C)=O)c(C)c4oc3=O)ccc2OC)c1

$$$$

  SciTegic03142313312D

 21 22  0  0  0  0            999 V2000
    3.8983   -0.7459    0.0000 C   0  0
    2.6003   -1.4977    0.0000 O   0  0
    1.2990   -0.7500    0.0000 C   0  0
    1.2990    0.7500    0.0000 C   0  0
    0.0000    1.5000    0.0000 C   0  0
   -0.0031    3.0008    0.0000 C   0  0
    1.2946    3.7531    0.0000 O   0  0
   -1.3039    3.7494    0.0000 C   0  0
   -1.3070    5.2502    0.0000 C   0  0
   -2.6078    5.9988    0.0000 C   0  0
   -2.7509    7.4791    0.0000 C   0  0
   -4.2192    7.7859    0.0000 C   0  0
   -4.9646    6.4842    0.0000 C   0  0
   -3.9571    5.3730    0.0000 N   0  0
   -1.2990    0.7500    0.0000 C   0  0
   -1.2990   -0.7500    0.0000 C   0  0
   -2.6003   -1.4978    0.0000 O   0  0
   -3.8983   -0.7459    0.0000 C   0  0
    0.0000   -1.5000    0.0000 C   0  0
    0.0031   -3.0008    0.0000 O   0  0
    1.3032   -3.7490    0.0000 C   0  0
  1  2  1  0
  2  3  1  0
  3  4  2  0
  4  5  1  0
  5  6  1  0
  6  7  2  0
  6  8  1  0
  8  9  2  0
  9 10  1  0
 10 11  2  0
 11 12  1  0
 12 13  2  0
 13 14  1  0
 14 10  1  0
  5 15  2  0
 15 16  1  0
 16 17  1  0
 17 18  1  0
 16 19  2  0
 19  3  1  0
 19 20  1  0
 20 21  1  0
M  END
> <assay_chembl_id>
CHEMBL3225961

> <assay_description>
Antiproliferative activity against human LNCAP cells assessed as inhibition of cell proliferation after 3 days by MTS assay

> <document_journal>
Medchemcomm

> <molecule_chembl_id>
CHEMBL3219603

> <standard_value>
59900

> <IC50_uM>
59.9

> <Activity>
No

> <Canonical_Smiles>
COc1cc(C(=O)/C=C/c2ccc[nH]2)cc(OC)c1OC

$$$$

  SciTegic03142313312D

 18 19  0  0  0  0            999 V2000
    2.5951   -3.0031    0.0000 C   0  0
    2.5973   -1.5031    0.0000 O   0  0
    1.2990   -0.7500    0.0000 C   0  0
    1.2990    0.7500    0.0000 C   0  0
    0.0000    1.5000    0.0000 C   0  0
   -1.2990    0.7500    0.0000 C   0  0
   -2.6003    1.4977    0.0000 C   0  0
   -2.6030    2.9977    0.0000 O   0  0
   -3.8990    0.7455    0.0000 C   0  0
   -5.2003    1.4932    0.0000 C   0  0
   -6.4990    0.7409    0.0000 C   0  0
   -6.6317   -0.7404    0.0000 C   0  0
   -8.0978   -1.0574    0.0000 C   0  0
   -8.8523    0.2390    0.0000 C   0  0
   -7.8525    1.3572    0.0000 N   0  0
   -8.1608    2.8252    0.0000 C   0  0
   -1.2990   -0.7500    0.0000 C   0  0
    0.0000   -1.5000    0.0000 C   0  0
  1  2  1  0
  2  3  1  0
  3  4  2  0
  4  5  1  0
  5  6  2  0
  6  7  1  0
  7  8  2  0
  7  9  1  0
  9 10  2  0
 10 11  1  0
 11 12  2  0
 12 13  1  0
 13 14  2  0
 14 15  1  0
 15 11  1  0
 15 16  1  0
  6 17  1  0
 17 18  2  0
 18  3  1  0
M  END
> <assay_chembl_id>
CHEMBL3225961

> <assay_description>
Antiproliferative activity against human LNCAP cells assessed as inhibition of cell proliferation after 3 days by MTS assay

> <document_journal>
Medchemcomm

> <molecule_chembl_id>
CHEMBL3219604

> <standard_value>
75500

> <IC50_uM>
75.5

> <Activity>
No

> <Canonical_Smiles>
COc1ccc(C(=O)/C=C/c2cccn2C)cc1

$$$$

  SciTegic03142313312D

 20 21  0  0  0  0            999 V2000
    3.8983   -0.7459    0.0000 C   0  0
    2.6003   -1.4977    0.0000 O   0  0
    1.2990   -0.7500    0.0000 C   0  0
    1.2990    0.7500    0.0000 C   0  0
    0.0000    1.5000    0.0000 C   0  0
   -1.2990    0.7500    0.0000 C   0  0
   -2.6003    1.4977    0.0000 C   0  0
   -2.6030    2.9977    0.0000 O   0  0
   -3.8990    0.7455    0.0000 C   0  0
   -5.2003    1.4932    0.0000 C   0  0
   -6.4990    0.7409    0.0000 C   0  0
   -6.6317   -0.7404    0.0000 C   0  0
   -8.0978   -1.0574    0.0000 C   0  0
   -8.8523    0.2390    0.0000 C   0  0
   -7.8525    1.3572    0.0000 N   0  0
   -8.1608    2.8252    0.0000 C   0  0
   -1.2990   -0.7500    0.0000 C   0  0
    0.0000   -1.5000    0.0000 C   0  0
   -0.0031   -3.0008    0.0000 O   0  0
   -1.3032   -3.7490    0.0000 C   0  0
  1  2  1  0
  2  3  1  0
  3  4  2  0
  4  5  1  0
  5  6  2  0
  6  7  1  0
  7  8  2  0
  7  9  1  0
  9 10  2  0
 10 11  1  0
 11 12  2  0
 12 13  1  0
 13 14  2  0
 14 15  1  0
 15 11  1  0
 15 16  1  0
  6 17  1  0
 17 18  2  0
 18  3  1  0
 18 19  1  0
 19 20  1  0
M  END
> <assay_chembl_id>
CHEMBL3225961

> <assay_description>
Antiproliferative activity against human LNCAP cells assessed as inhibition of cell proliferation after 3 days by MTS assay

> <document_journal>
Medchemcomm

> <molecule_chembl_id>
CHEMBL3219605

> <standard_value>
56300

> <IC50_uM>
56.3

> <Activity>
No

> <Canonical_Smiles>
COc1ccc(C(=O)/C=C/c2cccn2C)cc1OC

$$$$

  SciTegic03142313312D

 22 23  0  0  0  0            999 V2000
    3.8983   -0.7459    0.0000 C   0  0
    2.6003   -1.4977    0.0000 O   0  0
    1.2990   -0.7500    0.0000 C   0  0
    1.2990    0.7500    0.0000 C   0  0
    0.0000    1.5000    0.0000 C   0  0
   -0.0031    3.0008    0.0000 C   0  0
    1.2946    3.7531    0.0000 O   0  0
   -1.3039    3.7494    0.0000 C   0  0
   -1.3070    5.2502    0.0000 C   0  0
   -2.6078    5.9988    0.0000 C   0  0
   -3.9571    5.3730    0.0000 C   0  0
   -4.9647    6.4842    0.0000 C   0  0
   -4.2192    7.7859    0.0000 C   0  0
   -2.7509    7.4791    0.0000 N   0  0
   -1.6337    8.4801    0.0000 C   0  0
   -1.2990    0.7500    0.0000 C   0  0
   -1.2990   -0.7500    0.0000 C   0  0
   -2.6003   -1.4978    0.0000 O   0  0
   -3.8983   -0.7459    0.0000 C   0  0
    0.0000   -1.5000    0.0000 C   0  0
    0.0031   -3.0008    0.0000 O   0  0
    1.3032   -3.7490    0.0000 C   0  0
  1  2  1  0
  2  3  1  0
  3  4  2  0
  4  5  1  0
  5  6  1  0
  6  7  2  0
  6  8  1  0
  8  9  2  0
  9 10  1  0
 10 11  2  0
 11 12  1  0
 12 13  2  0
 13 14  1  0
 14 10  1  0
 14 15  1  0
  5 16  2  0
 16 17  1  0
 17 18  1  0
 18 19  1  0
 17 20  2  0
 20  3  1  0
 20 21  1  0
 21 22  1  0
M  END
> <assay_chembl_id>
CHEMBL3225961

> <assay_description>
Antiproliferative activity against human LNCAP cells assessed as inhibition of cell proliferation after 3 days by MTS assay

> <document_journal>
Medchemcomm

> <molecule_chembl_id>
CHEMBL3219606

> <standard_value>
69500

> <IC50_uM>
69.5

> <Activity>
No

> <Canonical_Smiles>
COc1cc(C(=O)/C=C/c2cccn2C)cc(OC)c1OC

$$$$

  SciTegic03142313312D

 18 19  0  0  0  0            999 V2000
    2.5951   -3.0031    0.0000 C   0  0
    2.5973   -1.5031    0.0000 O   0  0
    1.2990   -0.7500    0.0000 C   0  0
    1.2990    0.7500    0.0000 C   0  0
    0.0000    1.5000    0.0000 C   0  0
   -1.2990    0.7500    0.0000 C   0  0
   -2.6003    1.4977    0.0000 C   0  0
   -2.6030    2.9977    0.0000 O   0  0
   -3.8990    0.7455    0.0000 C   0  0
   -5.2003    1.4932    0.0000 C   0  0
   -6.4990    0.7409    0.0000 C   0  0
   -6.6317   -0.7404    0.0000 C   0  0
   -8.0978   -1.0574    0.0000 N   0  0
   -8.8523    0.2390    0.0000 C   0  0
   -7.8525    1.3572    0.0000 N   0  0
   -8.1608    2.8252    0.0000 C   0  0
   -1.2990   -0.7500    0.0000 C   0  0
    0.0000   -1.5000    0.0000 C   0  0
  1  2  1  0
  2  3  1  0
  3  4  2  0
  4  5  1  0
  5  6  2  0
  6  7  1  0
  7  8  2  0
  7  9  1  0
  9 10  2  0
 10 11  1  0
 11 12  2  0
 12 13  1  0
 13 14  2  0
 14 15  1  0
 15 11  1  0
 15 16  1  0
  6 17  1  0
 17 18  2  0
 18  3  1  0
M  END
> <assay_chembl_id>
CHEMBL3225961

> <assay_description>
Antiproliferative activity against human LNCAP cells assessed as inhibition of cell proliferation after 3 days by MTS assay

> <document_journal>
Medchemcomm

> <molecule_chembl_id>
CHEMBL3219607

> <standard_value>
33500

> <IC50_uM>
33.5

> <Activity>
No

> <Canonical_Smiles>
COc1ccc(C(=O)/C=C/c2cncn2C)cc1

$$$$

  SciTegic03142313312D

 19 20  0  0  0  0            999 V2000
    3.8983   -0.7459    0.0000 C   0  0
    2.6003   -1.4977    0.0000 O   0  0
    1.2990   -0.7500    0.0000 C   0  0
    1.2990    0.7500    0.0000 C   0  0
    0.0000    1.5000    0.0000 C   0  0
   -1.2990    0.7500    0.0000 C   0  0
   -2.6003    1.4977    0.0000 C   0  0
   -2.6030    2.9977    0.0000 O   0  0
   -3.8990    0.7455    0.0000 C   0  0
   -5.2003    1.4932    0.0000 C   0  0
   -6.4990    0.7409    0.0000 C   0  0
   -7.8525    1.3572    0.0000 C   0  0
   -8.8524    0.2390    0.0000 N   0  0
   -8.0978   -1.0574    0.0000 C   0  0
   -6.6317   -0.7404    0.0000 N   0  0
   -1.2990   -0.7500    0.0000 C   0  0
    0.0000   -1.5000    0.0000 C   0  0
   -0.0031   -3.0008    0.0000 O   0  0
   -1.3032   -3.7490    0.0000 C   0  0
  1  2  1  0
  2  3  1  0
  3  4  2  0
  4  5  1  0
  5  6  2  0
  6  7  1  0
  7  8  2  0
  7  9  1  0
  9 10  2  0
 10 11  1  0
 11 12  2  0
 12 13  1  0
 13 14  2  0
 14 15  1  0
 15 11  1  0
  6 16  1  0
 16 17  2  0
 17  3  1  0
 17 18  1  0
 18 19  1  0
M  END
> <assay_chembl_id>
CHEMBL3225961

> <assay_description>
Antiproliferative activity against human LNCAP cells assessed as inhibition of cell proliferation after 3 days by MTS assay

> <document_journal>
Medchemcomm

> <molecule_chembl_id>
CHEMBL3219608

> <standard_value>
46200

> <IC50_uM>
46.2

> <Activity>
No

> <Canonical_Smiles>
COc1ccc(C(=O)/C=C/c2cnc[nH]2)cc1OC

$$$$

  SciTegic03142313312D

 21 22  0  0  0  0            999 V2000
    3.8983   -0.7459    0.0000 C   0  0
    2.6003   -1.4977    0.0000 O   0  0
    1.2990   -0.7500    0.0000 C   0  0
    1.2990    0.7500    0.0000 C   0  0
    0.0000    1.5000    0.0000 C   0  0
   -0.0031    3.0008    0.0000 C   0  0
    1.2946    3.7531    0.0000 O   0  0
   -1.3039    3.7494    0.0000 C   0  0
   -1.3070    5.2502    0.0000 C   0  0
   -2.6078    5.9988    0.0000 C   0  0
   -2.7509    7.4791    0.0000 C   0  0
   -4.2192    7.7859    0.0000 N   0  0
   -4.9646    6.4842    0.0000 C   0  0
   -3.9571    5.3730    0.0000 N   0  0
   -1.2990    0.7500    0.0000 C   0  0
   -1.2990   -0.7500    0.0000 C   0  0
   -2.6003   -1.4978    0.0000 O   0  0
   -3.8983   -0.7459    0.0000 C   0  0
    0.0000   -1.5000    0.0000 C   0  0
    0.0031   -3.0008    0.0000 O   0  0
    1.3032   -3.7490    0.0000 C   0  0
  1  2  1  0
  2  3  1  0
  3  4  2  0
  4  5  1  0
  5  6  1  0
  6  7  2  0
  6  8  1  0
  8  9  2  0
  9 10  1  0
 10 11  2  0
 11 12  1  0
 12 13  2  0
 13 14  1  0
 14 10  1  0
  5 15  2  0
 15 16  1  0
 16 17  1  0
 17 18  1  0
 16 19  2  0
 19  3  1  0
 19 20  1  0
 20 21  1  0
M  END
> <assay_chembl_id>
CHEMBL3225961

> <assay_description>
Antiproliferative activity against human LNCAP cells assessed as inhibition of cell proliferation after 3 days by MTS assay

> <document_journal>
Medchemcomm

> <molecule_chembl_id>
CHEMBL3217775

> <standard_value>
48100

> <IC50_uM>
48.1

> <Activity>
No

> <Canonical_Smiles>
COc1cc(C(=O)/C=C/c2cnc[nH]2)cc(OC)c1OC

$$$$

  SciTegic03142313312D

 22 23  0  0  0  0            999 V2000
    3.8983   -0.7459    0.0000 C   0  0
    2.6003   -1.4977    0.0000 O   0  0
    1.2990   -0.7500    0.0000 C   0  0
    1.2990    0.7500    0.0000 C   0  0
    0.0000    1.5000    0.0000 C   0  0
   -0.0031    3.0008    0.0000 C   0  0
    1.2946    3.7531    0.0000 O   0  0
   -1.3039    3.7494    0.0000 C   0  0
   -1.3070    5.2502    0.0000 C   0  0
   -2.6078    5.9988    0.0000 C   0  0
   -3.9571    5.3730    0.0000 C   0  0
   -4.9647    6.4842    0.0000 N   0  0
   -4.2192    7.7859    0.0000 C   0  0
   -2.7509    7.4791    0.0000 N   0  0
   -1.6337    8.4801    0.0000 C   0  0
   -1.2990    0.7500    0.0000 C   0  0
   -1.2990   -0.7500    0.0000 C   0  0
   -2.6003   -1.4978    0.0000 O   0  0
   -3.8983   -0.7459    0.0000 C   0  0
    0.0000   -1.5000    0.0000 C   0  0
    0.0031   -3.0008    0.0000 O   0  0
    1.3032   -3.7490    0.0000 C   0  0
  1  2  1  0
  2  3  1  0
  3  4  2  0
  4  5  1  0
  5  6  1  0
  6  7  2  0
  6  8  1  0
  8  9  2  0
  9 10  1  0
 10 11  2  0
 11 12  1  0
 12 13  2  0
 13 14  1  0
 14 10  1  0
 14 15  1  0
  5 16  2  0
 16 17  1  0
 17 18  1  0
 18 19  1  0
 17 20  2  0
 20  3  1  0
 20 21  1  0
 21 22  1  0
M  END
> <assay_chembl_id>
CHEMBL3225961

> <assay_description>
Antiproliferative activity against human LNCAP cells assessed as inhibition of cell proliferation after 3 days by MTS assay

> <document_journal>
Medchemcomm

> <molecule_chembl_id>
CHEMBL3219610

> <standard_value>
30600

> <IC50_uM>
30.6

> <Activity>
No

> <Canonical_Smiles>
COc1cc(C(=O)/C=C/c2cncn2C)cc(OC)c1OC

$$$$

  SciTegic03142313312D

 22 23  0  0  0  0            999 V2000
    3.8983   -0.7459    0.0000 C   0  0
    2.6003   -1.4977    0.0000 O   0  0
    1.2990   -0.7500    0.0000 C   0  0
    1.2990    0.7500    0.0000 C   0  0
    0.0000    1.5000    0.0000 C   0  0
   -0.0031    3.0008    0.0000 C   0  0
    1.2946    3.7531    0.0000 O   0  0
   -1.3039    3.7494    0.0000 C   0  0
   -1.3070    5.2502    0.0000 C   0  0
   -2.6078    5.9988    0.0000 C   0  0
   -2.7509    7.4791    0.0000 C   0  0
   -4.2192    7.7859    0.0000 N   0  0
   -4.8341    9.1541    0.0000 C   0  0
   -4.9646    6.4842    0.0000 C   0  0
   -3.9571    5.3730    0.0000 N   0  0
   -1.2990    0.7500    0.0000 C   0  0
   -1.2990   -0.7500    0.0000 C   0  0
   -2.6003   -1.4978    0.0000 O   0  0
   -3.8983   -0.7459    0.0000 C   0  0
    0.0000   -1.5000    0.0000 C   0  0
    0.0031   -3.0008    0.0000 O   0  0
    1.3032   -3.7490    0.0000 C   0  0
  1  2  1  0
  2  3  1  0
  3  4  2  0
  4  5  1  0
  5  6  1  0
  6  7  2  0
  6  8  1  0
  8  9  2  0
  9 10  1  0
 10 11  2  0
 11 12  1  0
 12 13  1  0
 12 14  1  0
 14 15  2  0
 15 10  1  0
  5 16  2  0
 16 17  1  0
 17 18  1  0
 18 19  1  0
 17 20  2  0
 20  3  1  0
 20 21  1  0
 21 22  1  0
M  END
> <assay_chembl_id>
CHEMBL3225961

> <assay_description>
Antiproliferative activity against human LNCAP cells assessed as inhibition of cell proliferation after 3 days by MTS assay

> <document_journal>
Medchemcomm

> <molecule_chembl_id>
CHEMBL3219611

> <standard_value>
48400

> <IC50_uM>
48.4

> <Activity>
No

> <Canonical_Smiles>
COc1cc(C(=O)/C=C/c2cn(C)cn2)cc(OC)c1OC

$$$$

  SciTegic03142313312D

 26 27  0  0  0  0            999 V2000
    3.8983   -0.7459    0.0000 C   0  0
    2.6003   -1.4977    0.0000 O   0  0
    1.2990   -0.7500    0.0000 C   0  0
    1.2990    0.7500    0.0000 C   0  0
    0.0000    1.5000    0.0000 C   0  0
   -0.0031    3.0008    0.0000 C   0  0
   -1.3039    3.7494    0.0000 C   0  0
   -1.3070    5.2502    0.0000 C   0  0
   -0.0093    6.0025    0.0000 O   0  0
   -2.6078    5.9988    0.0000 C   0  0
   -2.6109    7.4996    0.0000 C   0  0
   -3.9118    8.2481    0.0000 C   0  0
   -3.9171    9.7482    0.0000 C   0  0
   -5.2187   10.4937    0.0000 C   0  0
   -5.2239   11.9936    0.0000 F   0  0
   -6.5151    9.7392    0.0000 C   0  0
   -7.8167   10.4847    0.0000 O   0  0
   -6.5099    8.2392    0.0000 C   0  0
   -7.8055    7.4816    0.0000 O   0  0
   -7.7982    5.9816    0.0000 C   0  0
   -5.2083    7.4937    0.0000 C   0  0
   -1.2990    0.7500    0.0000 C   0  0
   -1.2990   -0.7500    0.0000 C   0  0
   -2.5981   -1.5000    0.0000 F   0  0
    0.0000   -1.5000    0.0000 C   0  0
    0.0000   -3.0000    0.0000 O   0  0
  1  2  1  0
  2  3  1  0
  3  4  2  0
  4  5  1  0
  5  6  1  0
  6  7  2  0
  7  8  1  0
  8  9  2  0
  8 10  1  0
 10 11  2  0
 11 12  1  0
 12 13  2  0
 13 14  1  0
 14 15  1  0
 14 16  2  0
 16 17  1  0
 16 18  1  0
 18 19  1  0
 19 20  1  0
 18 21  2  0
 21 12  1  0
  5 22  2  0
 22 23  1  0
 23 24  1  0
 23 25  2  0
 25  3  1  0
 25 26  1  0
M  END
> <assay_chembl_id>
CHEMBL3295142

> <assay_description>
Cytotoxicity against human LNCAP cells assessed as cell viability after 24 hrs by MTT assay

> <document_journal>
J Med Chem

> <molecule_chembl_id>
CHEMBL3290186

> <standard_value>
25100

> <IC50_uM>
25.1

> <Activity>
No

> <Canonical_Smiles>
COc1cc(/C=C/C(=O)/C=C/c2cc(F)c(O)c(OC)c2)cc(F)c1O

$$$$

  SciTegic03142313312D

 34 35  0  0  0  0            999 V2000
    3.8983   -0.7459    0.0000 C   0  0
    2.6003   -1.4977    0.0000 O   0  0
    1.2990   -0.7500    0.0000 C   0  0
    1.2990    0.7500    0.0000 C   0  0
    0.0000    1.5000    0.0000 C   0  0
   -0.0031    3.0008    0.0000 C   0  0
   -1.3039    3.7494    0.0000 C   0  0
   -1.3070    5.2502    0.0000 C   0  0
   -0.0093    6.0025    0.0000 O   0  0
   -2.6078    5.9988    0.0000 C   0  0
   -2.6109    7.4996    0.0000 C   0  0
   -3.9118    8.2481    0.0000 C   0  0
   -3.9171    9.7482    0.0000 C   0  0
   -5.2187   10.4937    0.0000 C   0  0
   -5.2208   11.9945    0.0000 C   0  0
   -3.9226   12.7476    0.0000 C   0  0
   -3.9247   14.2484    0.0000 C   0  0
   -2.6272   15.0010    0.0000 C   0  0
   -5.2250   14.9961    0.0000 C   0  0
   -6.5151    9.7392    0.0000 C   0  0
   -7.8167   10.4847    0.0000 O   0  0
   -6.5099    8.2392    0.0000 C   0  0
   -7.8055    7.4816    0.0000 O   0  0
   -7.7982    5.9816    0.0000 C   0  0
   -5.2083    7.4937    0.0000 C   0  0
   -1.2990    0.7500    0.0000 C   0  0
   -1.2990   -0.7500    0.0000 C   0  0
   -2.6003   -1.4978    0.0000 C   0  0
   -3.8990   -0.7455    0.0000 C   0  0
   -5.2003   -1.4932    0.0000 C   0  0
   -6.4983   -0.7414    0.0000 C   0  0
   -5.2029   -2.9932    0.0000 C   0  0
    0.0000   -1.5000    0.0000 C   0  0
    0.0000   -3.0000    0.0000 O   0  0
  1  2  1  0
  2  3  1  0
  3  4  2  0
  4  5  1  0
  5  6  1  0
  6  7  2  0
  7  8  1  0
  8  9  2  0
  8 10  1  0
 10 11  2  0
 11 12  1  0
 12 13  2  0
 13 14  1  0
 14 15  1  0
 15 16  1  0
 16 17  2  0
 17 18  1  0
 17 19  1  0
 14 20  2  0
 20 21  1  0
 20 22  1  0
 22 23  1  0
 23 24  1  0
 22 25  2  0
 25 12  1  0
  5 26  2  0
 26 27  1  0
 27 28  1  0
 28 29  1  0
 29 30  2  0
 30 31  1  0
 30 32  1  0
 27 33  2  0
 33  3  1  0
 33 34  1  0
M  END
> <assay_chembl_id>
CHEMBL3295142

> <assay_description>
Cytotoxicity against human LNCAP cells assessed as cell viability after 24 hrs by MTT assay

> <document_journal>
J Med Chem

> <molecule_chembl_id>
CHEMBL2392188

> <standard_value>
43800

> <IC50_uM>
43.8

> <Activity>
No

> <Canonical_Smiles>
COc1cc(/C=C/C(=O)/C=C/c2cc(CC=C(C)C)c(O)c(OC)c2)cc(CC=C(C)C)c1O

$$$$

  SciTegic03142313312D

 32 35  0  0  0  0            999 V2000
    2.5951   -3.0031    0.0000 C   0  0
    2.5973   -1.5031    0.0000 O   0  0
    1.2990   -0.7500    0.0000 C   0  0
    1.2990    0.7500    0.0000 C   0  0
    0.0000    1.5000    0.0000 C   0  0
   -0.0031    3.0008    0.0000 O   0  0
   -1.3032    3.7490    0.0000 C   0  0
   -1.2990    0.7500    0.0000 C   0  0
   -1.2990   -0.7500    0.0000 C   0  0
   -2.5972   -1.5031    0.0000 O   0  0
   -2.5951   -3.0039    0.0000 C   0  0
   -3.8933   -3.7570    0.0000 C   0  0
   -3.8934   -5.2570    0.0000 C   0  0
   -5.1924   -6.0071    0.0000 C   0  0
   -6.4914   -5.2571    0.0000 C   0  0
   -7.7927   -6.0049    0.0000 C   0  0
   -9.0914   -5.2527    0.0000 C   0  0
  -10.3927   -6.0004    0.0000 N   0  0
  -11.6918   -5.2505    0.0000 C   0  0
  -12.9908   -6.0005    0.0000 C   0  0
  -12.9908   -7.5005    0.0000 N   0  0
  -14.2905   -8.2509    0.0000 C   0  0
  -15.5909   -7.5030    0.0000 C   0  0
  -16.8887   -8.2551    0.0000 C   0  0
  -16.8863   -9.7551    0.0000 C   0  0
  -15.5861  -10.5030    0.0000 C   0  0
  -14.2882   -9.7509    0.0000 N   0  0
  -11.6918   -8.2505    0.0000 C   0  0
  -10.3928   -7.5005    0.0000 C   0  0
   -6.4915   -3.7571    0.0000 C   0  0
   -5.1925   -3.0071    0.0000 C   0  0
    0.0000   -1.5000    0.0000 C   0  0
  1  2  1  0
  2  3  1  0
  3  4  2  0
  4  5  1  0
  5  6  1  0
  6  7  1  0
  5  8  2  0
  8  9  1  0
  9 10  1  0
 10 11  1  0
 11 12  1  0
 12 13  2  0
 13 14  1  0
 14 15  2  0
 15 16  1  0
 16 17  1  0
 17 18  1  0
 18 19  1  0
 19 20  1  0
 20 21  1  0
 21 22  1  0
 22 23  2  0
 23 24  1  0
 24 25  2  0
 25 26  1  0
 26 27  2  0
 27 22  1  0
 21 28  1  0
 28 29  1  0
 29 18  1  0
 15 30  1  0
 30 31  2  0
 31 12  1  0
  9 32  2  0
 32  3  1  0
M  END
> <assay_chembl_id>
CHEMBL3378460

> <assay_description>
Cytotoxicity against human LNCAP cells assessed as inhibition of cell viability after 24 hrs by CCK-8 assay

> <document_journal>
Bioorg Med Chem Lett

> <molecule_chembl_id>
CHEMBL3354480

> <standard_value>
42270

> <IC50_uM>
42.27

> <Activity>
No

> <RemovedSalts>
HCl

> <Canonical_Smiles>
COc1cc(OC)cc(OCc2ccc(CCN3CCN(c4ccccn4)CC3)cc2)c1.Cl

$$$$

  SciTegic03142313312D

 33 36  0  0  0  0            999 V2000
    2.5951   -3.0031    0.0000 C   0  0
    2.5973   -1.5031    0.0000 O   0  0
    1.2990   -0.7500    0.0000 C   0  0
    1.2990    0.7500    0.0000 C   0  0
    0.0000    1.5000    0.0000 C   0  0
   -0.0031    3.0008    0.0000 O   0  0
   -1.3032    3.7490    0.0000 C   0  0
   -1.2990    0.7500    0.0000 C   0  0
   -1.2990   -0.7500    0.0000 C   0  0
   -2.5972   -1.5031    0.0000 O   0  0
   -2.5951   -3.0039    0.0000 C   0  0
   -3.8933   -3.7570    0.0000 C   0  0
   -3.8934   -5.2570    0.0000 C   0  0
   -5.1924   -6.0071    0.0000 C   0  0
   -6.4914   -5.2571    0.0000 C   0  0
   -7.7927   -6.0049    0.0000 C   0  0
   -9.0914   -5.2527    0.0000 C   0  0
  -10.3927   -6.0004    0.0000 N   0  0
  -11.6918   -5.2505    0.0000 C   0  0
  -12.9908   -6.0005    0.0000 C   0  0
  -12.9908   -7.5005    0.0000 N   0  0
  -14.2905   -8.2509    0.0000 C   0  0
  -14.2882   -9.7509    0.0000 C   0  0
  -15.5861  -10.5030    0.0000 C   0  0
  -16.8863   -9.7551    0.0000 C   0  0
  -16.8887   -8.2551    0.0000 C   0  0
  -15.5908   -7.5030    0.0000 C   0  0
  -15.5933   -6.0030    0.0000 C   0  0
  -11.6918   -8.2505    0.0000 C   0  0
  -10.3928   -7.5005    0.0000 C   0  0
   -6.4915   -3.7571    0.0000 C   0  0
   -5.1925   -3.0071    0.0000 C   0  0
    0.0000   -1.5000    0.0000 C   0  0
  1  2  1  0
  2  3  1  0
  3  4  2  0
  4  5  1  0
  5  6  1  0
  6  7  1  0
  5  8  2  0
  8  9  1  0
  9 10  1  0
 10 11  1  0
 11 12  1  0
 12 13  2  0
 13 14  1  0
 14 15  2  0
 15 16  1  0
 16 17  1  0
 17 18  1  0
 18 19  1  0
 19 20  1  0
 20 21  1  0
 21 22  1  0
 22 23  2  0
 23 24  1  0
 24 25  2  0
 25 26  1  0
 26 27  2  0
 27 22  1  0
 27 28  1  0
 21 29  1  0
 29 30  1  0
 30 18  1  0
 15 31  1  0
 31 32  2  0
 32 12  1  0
  9 33  2  0
 33  3  1  0
M  END
> <assay_chembl_id>
CHEMBL3378460

> <assay_description>
Cytotoxicity against human LNCAP cells assessed as inhibition of cell viability after 24 hrs by CCK-8 assay

> <document_journal>
Bioorg Med Chem Lett

> <molecule_chembl_id>
CHEMBL3352838

> <standard_value>
35760

> <IC50_uM>
35.76

> <Activity>
No

> <RemovedSalts>
HCl

> <Canonical_Smiles>
COc1cc(OC)cc(OCc2ccc(CCN3CCN(c4ccccc4C)CC3)cc2)c1.Cl

$$$$

  SciTegic03142313312D

 33 36  0  0  0  0            999 V2000
    2.5951   -3.0031    0.0000 C   0  0
    2.5973   -1.5031    0.0000 O   0  0
    1.2990   -0.7500    0.0000 C   0  0
    1.2990    0.7500    0.0000 C   0  0
    0.0000    1.5000    0.0000 C   0  0
   -0.0031    3.0008    0.0000 O   0  0
   -1.3032    3.7490    0.0000 C   0  0
   -1.2990    0.7500    0.0000 C   0  0
   -1.2990   -0.7500    0.0000 C   0  0
   -2.5972   -1.5031    0.0000 O   0  0
   -2.5951   -3.0039    0.0000 C   0  0
   -3.8933   -3.7570    0.0000 C   0  0
   -3.8934   -5.2570    0.0000 C   0  0
   -5.1924   -6.0071    0.0000 C   0  0
   -6.4914   -5.2571    0.0000 C   0  0
   -7.7927   -6.0049    0.0000 C   0  0
   -9.0914   -5.2527    0.0000 C   0  0
  -10.3927   -6.0004    0.0000 N   0  0
  -11.6918   -5.2505    0.0000 C   0  0
  -12.9908   -6.0005    0.0000 C   0  0
  -12.9908   -7.5005    0.0000 N   0  0
  -14.2905   -8.2509    0.0000 C   0  0
  -15.5909   -7.5030    0.0000 C   0  0
  -16.8887   -8.2551    0.0000 C   0  0
  -16.8863   -9.7551    0.0000 C   0  0
  -18.1842  -10.5071    0.0000 C   0  0
  -15.5861  -10.5030    0.0000 C   0  0
  -14.2882   -9.7509    0.0000 C   0  0
  -11.6918   -8.2505    0.0000 C   0  0
  -10.3928   -7.5005    0.0000 C   0  0
   -6.4915   -3.7571    0.0000 C   0  0
   -5.1925   -3.0071    0.0000 C   0  0
    0.0000   -1.5000    0.0000 C   0  0
  1  2  1  0
  2  3  1  0
  3  4  2  0
  4  5  1  0
  5  6  1  0
  6  7  1  0
  5  8  2  0
  8  9  1  0
  9 10  1  0
 10 11  1  0
 11 12  1  0
 12 13  2  0
 13 14  1  0
 14 15  2  0
 15 16  1  0
 16 17  1  0
 17 18  1  0
 18 19  1  0
 19 20  1  0
 20 21  1  0
 21 22  1  0
 22 23  2  0
 23 24  1  0
 24 25  2  0
 25 26  1  0
 25 27  1  0
 27 28  2  0
 28 22  1  0
 21 29  1  0
 29 30  1  0
 30 18  1  0
 15 31  1  0
 31 32  2  0
 32 12  1  0
  9 33  2  0
 33  3  1  0
M  END
> <assay_chembl_id>
CHEMBL3378460

> <assay_description>
Cytotoxicity against human LNCAP cells assessed as inhibition of cell viability after 24 hrs by CCK-8 assay

> <document_journal>
Bioorg Med Chem Lett

> <molecule_chembl_id>
CHEMBL3354482

> <standard_value>
35210

> <IC50_uM>
35.21

> <Activity>
No

> <RemovedSalts>
HCl

> <Canonical_Smiles>
COc1cc(OC)cc(OCc2ccc(CCN3CCN(c4ccc(C)cc4)CC3)cc2)c1.Cl

$$$$

  SciTegic03142313312D

 34 37  0  0  0  0            999 V2000
    2.5951   -3.0031    0.0000 C   0  0
    2.5973   -1.5031    0.0000 O   0  0
    1.2990   -0.7500    0.0000 C   0  0
    1.2990    0.7500    0.0000 C   0  0
    0.0000    1.5000    0.0000 C   0  0
   -0.0031    3.0008    0.0000 O   0  0
   -1.3032    3.7490    0.0000 C   0  0
   -1.2990    0.7500    0.0000 C   0  0
   -1.2990   -0.7500    0.0000 C   0  0
   -2.5972   -1.5031    0.0000 O   0  0
   -2.5951   -3.0039    0.0000 C   0  0
   -3.8933   -3.7570    0.0000 C   0  0
   -3.8934   -5.2570    0.0000 C   0  0
   -5.1924   -6.0071    0.0000 C   0  0
   -6.4914   -5.2571    0.0000 C   0  0
   -7.7927   -6.0049    0.0000 C   0  0
   -9.0914   -5.2527    0.0000 C   0  0
  -10.3927   -6.0004    0.0000 N   0  0
  -11.6918   -5.2505    0.0000 C   0  0
  -12.9908   -6.0005    0.0000 C   0  0
  -12.9908   -7.5005    0.0000 N   0  0
  -14.2905   -8.2509    0.0000 C   0  0
  -14.2882   -9.7509    0.0000 C   0  0
  -15.5861  -10.5030    0.0000 C   0  0
  -15.5837  -12.0030    0.0000 C   0  0
  -16.8863   -9.7551    0.0000 C   0  0
  -16.8887   -8.2551    0.0000 C   0  0
  -15.5908   -7.5030    0.0000 C   0  0
  -15.5933   -6.0030    0.0000 C   0  0
  -11.6918   -8.2505    0.0000 C   0  0
  -10.3928   -7.5005    0.0000 C   0  0
   -6.4915   -3.7571    0.0000 C   0  0
   -5.1925   -3.0071    0.0000 C   0  0
    0.0000   -1.5000    0.0000 C   0  0
  1  2  1  0
  2  3  1  0
  3  4  2  0
  4  5  1  0
  5  6  1  0
  6  7  1  0
  5  8  2  0
  8  9  1  0
  9 10  1  0
 10 11  1  0
 11 12  1  0
 12 13  2  0
 13 14  1  0
 14 15  2  0
 15 16  1  0
 16 17  1  0
 17 18  1  0
 18 19  1  0
 19 20  1  0
 20 21  1  0
 21 22  1  0
 22 23  2  0
 23 24  1  0
 24 25  1  0
 24 26  2  0
 26 27  1  0
 27 28  2  0
 28 22  1  0
 28 29  1  0
 21 30  1  0
 30 31  1  0
 31 18  1  0
 15 32  1  0
 32 33  2  0
 33 12  1  0
  9 34  2  0
 34  3  1  0
M  END
> <assay_chembl_id>
CHEMBL3378460

> <assay_description>
Cytotoxicity against human LNCAP cells assessed as inhibition of cell viability after 24 hrs by CCK-8 assay

> <document_journal>
Bioorg Med Chem Lett

> <molecule_chembl_id>
CHEMBL3354484

> <standard_value>
36120

> <IC50_uM>
36.12

> <Activity>
No

> <RemovedSalts>
HCl

> <Canonical_Smiles>
COc1cc(OC)cc(OCc2ccc(CCN3CCN(c4cc(C)ccc4C)CC3)cc2)c1.Cl

$$$$

  SciTegic03142313312D

 34 37  0  0  0  0            999 V2000
    2.5951   -3.0031    0.0000 C   0  0
    2.5973   -1.5031    0.0000 O   0  0
    1.2990   -0.7500    0.0000 C   0  0
    1.2990    0.7500    0.0000 C   0  0
    0.0000    1.5000    0.0000 C   0  0
   -0.0031    3.0008    0.0000 O   0  0
   -1.3032    3.7490    0.0000 C   0  0
   -1.2990    0.7500    0.0000 C   0  0
   -1.2990   -0.7500    0.0000 C   0  0
   -2.5972   -1.5031    0.0000 O   0  0
   -2.5951   -3.0039    0.0000 C   0  0
   -3.8933   -3.7570    0.0000 C   0  0
   -3.8934   -5.2570    0.0000 C   0  0
   -5.1924   -6.0071    0.0000 C   0  0
   -6.4914   -5.2571    0.0000 C   0  0
   -7.7927   -6.0049    0.0000 C   0  0
   -9.0914   -5.2527    0.0000 C   0  0
  -10.3927   -6.0004    0.0000 N   0  0
  -11.6918   -5.2505    0.0000 C   0  0
  -12.9908   -6.0005    0.0000 C   0  0
  -12.9908   -7.5005    0.0000 N   0  0
  -14.2905   -8.2509    0.0000 C   0  0
  -14.2882   -9.7509    0.0000 C   0  0
  -15.5861  -10.5030    0.0000 C   0  0
  -16.8863   -9.7551    0.0000 C   0  0
  -16.8887   -8.2551    0.0000 C   0  0
  -15.5908   -7.5030    0.0000 C   0  0
  -15.5964   -6.0022    0.0000 O   0  0
  -16.8977   -5.2562    0.0000 C   0  0
  -11.6918   -8.2505    0.0000 C   0  0
  -10.3928   -7.5005    0.0000 C   0  0
   -6.4915   -3.7571    0.0000 C   0  0
   -5.1925   -3.0071    0.0000 C   0  0
    0.0000   -1.5000    0.0000 C   0  0
  1  2  1  0
  2  3  1  0
  3  4  2  0
  4  5  1  0
  5  6  1  0
  6  7  1  0
  5  8  2  0
  8  9  1  0
  9 10  1  0
 10 11  1  0
 11 12  1  0
 12 13  2  0
 13 14  1  0
 14 15  2  0
 15 16  1  0
 16 17  1  0
 17 18  1  0
 18 19  1  0
 19 20  1  0
 20 21  1  0
 21 22  1  0
 22 23  2  0
 23 24  1  0
 24 25  2  0
 25 26  1  0
 26 27  2  0
 27 22  1  0
 27 28  1  0
 28 29  1  0
 21 30  1  0
 30 31  1  0
 31 18  1  0
 15 32  1  0
 32 33  2  0
 33 12  1  0
  9 34  2  0
 34  3  1  0
M  END
> <assay_chembl_id>
CHEMBL3378460

> <assay_description>
Cytotoxicity against human LNCAP cells assessed as inhibition of cell viability after 24 hrs by CCK-8 assay

> <document_journal>
Bioorg Med Chem Lett

> <molecule_chembl_id>
CHEMBL3354485

> <standard_value>
26290

> <IC50_uM>
26.29

> <Activity>
No

> <RemovedSalts>
HCl

> <Canonical_Smiles>
COc1cc(OC)cc(OCc2ccc(CCN3CCN(c4ccccc4OC)CC3)cc2)c1.Cl

$$$$

  SciTegic03142313312D

 34 37  0  0  0  0            999 V2000
    2.5951   -3.0031    0.0000 C   0  0
    2.5973   -1.5031    0.0000 O   0  0
    1.2990   -0.7500    0.0000 C   0  0
    1.2990    0.7500    0.0000 C   0  0
    0.0000    1.5000    0.0000 C   0  0
   -0.0031    3.0008    0.0000 O   0  0
   -1.3032    3.7490    0.0000 C   0  0
   -1.2990    0.7500    0.0000 C   0  0
   -1.2990   -0.7500    0.0000 C   0  0
   -2.5972   -1.5031    0.0000 O   0  0
   -2.5951   -3.0039    0.0000 C   0  0
   -3.8933   -3.7570    0.0000 C   0  0
   -3.8934   -5.2570    0.0000 C   0  0
   -5.1924   -6.0071    0.0000 C   0  0
   -6.4914   -5.2571    0.0000 C   0  0
   -7.7927   -6.0049    0.0000 C   0  0
   -9.0914   -5.2527    0.0000 C   0  0
  -10.3927   -6.0004    0.0000 N   0  0
  -11.6918   -5.2505    0.0000 C   0  0
  -12.9908   -6.0005    0.0000 C   0  0
  -12.9908   -7.5005    0.0000 N   0  0
  -14.2905   -8.2509    0.0000 C   0  0
  -15.5909   -7.5030    0.0000 C   0  0
  -16.8887   -8.2551    0.0000 C   0  0
  -16.8863   -9.7551    0.0000 C   0  0
  -15.5861  -10.5030    0.0000 C   0  0
  -15.5806  -12.0038    0.0000 O   0  0
  -14.2793  -12.7499    0.0000 C   0  0
  -14.2882   -9.7509    0.0000 C   0  0
  -11.6918   -8.2505    0.0000 C   0  0
  -10.3928   -7.5005    0.0000 C   0  0
   -6.4915   -3.7571    0.0000 C   0  0
   -5.1925   -3.0071    0.0000 C   0  0
    0.0000   -1.5000    0.0000 C   0  0
  1  2  1  0
  2  3  1  0
  3  4  2  0
  4  5  1  0
  5  6  1  0
  6  7  1  0
  5  8  2  0
  8  9  1  0
  9 10  1  0
 10 11  1  0
 11 12  1  0
 12 13  2  0
 13 14  1  0
 14 15  2  0
 15 16  1  0
 16 17  1  0
 17 18  1  0
 18 19  1  0
 19 20  1  0
 20 21  1  0
 21 22  1  0
 22 23  2  0
 23 24  1  0
 24 25  2  0
 25 26  1  0
 26 27  1  0
 27 28  1  0
 26 29  2  0
 29 22  1  0
 21 30  1  0
 30 31  1  0
 31 18  1  0
 15 32  1  0
 32 33  2  0
 33 12  1  0
  9 34  2  0
 34  3  1  0
M  END
> <assay_chembl_id>
CHEMBL3378460

> <assay_description>
Cytotoxicity against human LNCAP cells assessed as inhibition of cell viability after 24 hrs by CCK-8 assay

> <document_journal>
Bioorg Med Chem Lett

> <molecule_chembl_id>
CHEMBL3354488

> <standard_value>
20040

> <IC50_uM>
20.04

> <Activity>
No

> <RemovedSalts>
HCl

> <Canonical_Smiles>
COc1cc(OC)cc(OCc2ccc(CCN3CCN(c4cccc(OC)c4)CC3)cc2)c1.Cl

$$$$

  SciTegic03142313312D

 35 38  0  0  0  0            999 V2000
    2.5951   -3.0031    0.0000 C   0  0
    2.5973   -1.5031    0.0000 O   0  0
    1.2990   -0.7500    0.0000 C   0  0
    1.2990    0.7500    0.0000 C   0  0
    0.0000    1.5000    0.0000 C   0  0
   -0.0031    3.0008    0.0000 O   0  0
   -1.3032    3.7490    0.0000 C   0  0
   -1.2990    0.7500    0.0000 C   0  0
   -1.2990   -0.7500    0.0000 C   0  0
   -2.5972   -1.5031    0.0000 O   0  0
   -2.5951   -3.0039    0.0000 C   0  0
   -3.8933   -3.7570    0.0000 C   0  0
   -3.8934   -5.2570    0.0000 C   0  0
   -5.1924   -6.0071    0.0000 C   0  0
   -6.4914   -5.2571    0.0000 C   0  0
   -7.7927   -6.0049    0.0000 C   0  0
   -9.0914   -5.2527    0.0000 C   0  0
  -10.3927   -6.0004    0.0000 N   0  0
  -11.6918   -5.2505    0.0000 C   0  0
  -12.9908   -6.0005    0.0000 C   0  0
  -12.9908   -7.5005    0.0000 N   0  0
  -14.2905   -8.2509    0.0000 C   0  0
  -14.2882   -9.7509    0.0000 C   0  0
  -15.5861  -10.5030    0.0000 C   0  0
  -15.5837  -12.0030    0.0000 Cl  0  0
  -16.8863   -9.7551    0.0000 C   0  0
  -16.8887   -8.2551    0.0000 C   0  0
  -15.5908   -7.5030    0.0000 C   0  0
  -15.5964   -6.0022    0.0000 O   0  0
  -16.8977   -5.2562    0.0000 C   0  0
  -11.6918   -8.2505    0.0000 C   0  0
  -10.3928   -7.5005    0.0000 C   0  0
   -6.4915   -3.7571    0.0000 C   0  0
   -5.1925   -3.0071    0.0000 C   0  0
    0.0000   -1.5000    0.0000 C   0  0
  1  2  1  0
  2  3  1  0
  3  4  2  0
  4  5  1  0
  5  6  1  0
  6  7  1  0
  5  8  2  0
  8  9  1  0
  9 10  1  0
 10 11  1  0
 11 12  1  0
 12 13  2  0
 13 14  1  0
 14 15  2  0
 15 16  1  0
 16 17  1  0
 17 18  1  0
 18 19  1  0
 19 20  1  0
 20 21  1  0
 21 22  1  0
 22 23  2  0
 23 24  1  0
 24 25  1  0
 24 26  2  0
 26 27  1  0
 27 28  2  0
 28 22  1  0
 28 29  1  0
 29 30  1  0
 21 31  1  0
 31 32  1  0
 32 18  1  0
 15 33  1  0
 33 34  2  0
 34 12  1  0
  9 35  2  0
 35  3  1  0
M  END
> <assay_chembl_id>
CHEMBL3378460

> <assay_description>
Cytotoxicity against human LNCAP cells assessed as inhibition of cell viability after 24 hrs by CCK-8 assay

> <document_journal>
Bioorg Med Chem Lett

> <molecule_chembl_id>
CHEMBL3354489

> <standard_value>
39810

> <IC50_uM>
39.81

> <Activity>
No

> <RemovedSalts>
HCl

> <Canonical_Smiles>
COc1cc(OC)cc(OCc2ccc(CCN3CCN(c4cc(Cl)ccc4OC)CC3)cc2)c1.Cl

$$$$

  SciTegic03142313312D

 33 36  0  0  0  0            999 V2000
    2.5951   -3.0031    0.0000 C   0  0
    2.5973   -1.5031    0.0000 O   0  0
    1.2990   -0.7500    0.0000 C   0  0
    1.2990    0.7500    0.0000 C   0  0
    0.0000    1.5000    0.0000 C   0  0
   -0.0031    3.0008    0.0000 O   0  0
   -1.3032    3.7490    0.0000 C   0  0
   -1.2990    0.7500    0.0000 C   0  0
   -1.2990   -0.7500    0.0000 C   0  0
   -2.5972   -1.5031    0.0000 O   0  0
   -2.5951   -3.0039    0.0000 C   0  0
   -3.8933   -3.7570    0.0000 C   0  0
   -3.8934   -5.2570    0.0000 C   0  0
   -5.1924   -6.0071    0.0000 C   0  0
   -6.4914   -5.2571    0.0000 C   0  0
   -7.7927   -6.0049    0.0000 C   0  0
   -9.0914   -5.2527    0.0000 C   0  0
  -10.3927   -6.0004    0.0000 N   0  0
  -11.6918   -5.2505    0.0000 C   0  0
  -12.9908   -6.0005    0.0000 C   0  0
  -12.9908   -7.5005    0.0000 N   0  0
  -14.2905   -8.2509    0.0000 C   0  0
  -15.5909   -7.5030    0.0000 C   0  0
  -16.8887   -8.2551    0.0000 C   0  0
  -16.8863   -9.7551    0.0000 C   0  0
  -18.1842  -10.5071    0.0000 F   0  0
  -15.5861  -10.5030    0.0000 C   0  0
  -14.2882   -9.7509    0.0000 C   0  0
  -11.6918   -8.2505    0.0000 C   0  0
  -10.3928   -7.5005    0.0000 C   0  0
   -6.4915   -3.7571    0.0000 C   0  0
   -5.1925   -3.0071    0.0000 C   0  0
    0.0000   -1.5000    0.0000 C   0  0
  1  2  1  0
  2  3  1  0
  3  4  2  0
  4  5  1  0
  5  6  1  0
  6  7  1  0
  5  8  2  0
  8  9  1  0
  9 10  1  0
 10 11  1  0
 11 12  1  0
 12 13  2  0
 13 14  1  0
 14 15  2  0
 15 16  1  0
 16 17  1  0
 17 18  1  0
 18 19  1  0
 19 20  1  0
 20 21  1  0
 21 22  1  0
 22 23  2  0
 23 24  1  0
 24 25  2  0
 25 26  1  0
 25 27  1  0
 27 28  2  0
 28 22  1  0
 21 29  1  0
 29 30  1  0
 30 18  1  0
 15 31  1  0
 31 32  2  0
 32 12  1  0
  9 33  2  0
 33  3  1  0
M  END
> <assay_chembl_id>
CHEMBL3378460

> <assay_description>
Cytotoxicity against human LNCAP cells assessed as inhibition of cell viability after 24 hrs by CCK-8 assay

> <document_journal>
Bioorg Med Chem Lett

> <molecule_chembl_id>
CHEMBL3354923

> <standard_value>
35040

> <IC50_uM>
35.04

> <Activity>
No

> <RemovedSalts>
HCl

> <Canonical_Smiles>
COc1cc(OC)cc(OCc2ccc(CCN3CCN(c4ccc(F)cc4)CC3)cc2)c1.Cl

$$$$

  SciTegic03142313312D

 33 36  0  0  0  0            999 V2000
    2.5951   -3.0031    0.0000 C   0  0
    2.5973   -1.5031    0.0000 O   0  0
    1.2990   -0.7500    0.0000 C   0  0
    1.2990    0.7500    0.0000 C   0  0
    0.0000    1.5000    0.0000 C   0  0
   -0.0031    3.0008    0.0000 O   0  0
   -1.3032    3.7490    0.0000 C   0  0
   -1.2990    0.7500    0.0000 C   0  0
   -1.2990   -0.7500    0.0000 C   0  0
   -2.5972   -1.5031    0.0000 O   0  0
   -2.5951   -3.0039    0.0000 C   0  0
   -3.8933   -3.7570    0.0000 C   0  0
   -3.8934   -5.2570    0.0000 C   0  0
   -5.1924   -6.0071    0.0000 C   0  0
   -6.4914   -5.2571    0.0000 C   0  0
   -7.7927   -6.0049    0.0000 C   0  0
   -9.0914   -5.2527    0.0000 C   0  0
  -10.3927   -6.0004    0.0000 N   0  0
  -11.6918   -5.2505    0.0000 C   0  0
  -12.9908   -6.0005    0.0000 C   0  0
  -12.9908   -7.5005    0.0000 N   0  0
  -14.2905   -8.2509    0.0000 C   0  0
  -14.2882   -9.7509    0.0000 C   0  0
  -15.5861  -10.5030    0.0000 C   0  0
  -16.8863   -9.7551    0.0000 C   0  0
  -16.8887   -8.2551    0.0000 C   0  0
  -15.5908   -7.5030    0.0000 C   0  0
  -15.5933   -6.0030    0.0000 Cl  0  0
  -11.6918   -8.2505    0.0000 C   0  0
  -10.3928   -7.5005    0.0000 C   0  0
   -6.4915   -3.7571    0.0000 C   0  0
   -5.1925   -3.0071    0.0000 C   0  0
    0.0000   -1.5000    0.0000 C   0  0
  1  2  1  0
  2  3  1  0
  3  4  2  0
  4  5  1  0
  5  6  1  0
  6  7  1  0
  5  8  2  0
  8  9  1  0
  9 10  1  0
 10 11  1  0
 11 12  1  0
 12 13  2  0
 13 14  1  0
 14 15  2  0
 15 16  1  0
 16 17  1  0
 17 18  1  0
 18 19  1  0
 19 20  1  0
 20 21  1  0
 21 22  1  0
 22 23  2  0
 23 24  1  0
 24 25  2  0
 25 26  1  0
 26 27  2  0
 27 22  1  0
 27 28  1  0
 21 29  1  0
 29 30  1  0
 30 18  1  0
 15 31  1  0
 31 32  2  0
 32 12  1  0
  9 33  2  0
 33  3  1  0
M  END
> <assay_chembl_id>
CHEMBL3378460

> <assay_description>
Cytotoxicity against human LNCAP cells assessed as inhibition of cell viability after 24 hrs by CCK-8 assay

> <document_journal>
Bioorg Med Chem Lett

> <molecule_chembl_id>
CHEMBL3354925

> <standard_value>
32470

> <IC50_uM>
32.47

> <Activity>
No

> <RemovedSalts>
HCl

> <Canonical_Smiles>
COc1cc(OC)cc(OCc2ccc(CCN3CCN(c4ccccc4Cl)CC3)cc2)c1.Cl

$$$$

  SciTegic03142313312D

 33 36  0  0  0  0            999 V2000
    2.5951   -3.0031    0.0000 C   0  0
    2.5973   -1.5031    0.0000 O   0  0
    1.2990   -0.7500    0.0000 C   0  0
    1.2990    0.7500    0.0000 C   0  0
    0.0000    1.5000    0.0000 C   0  0
   -0.0031    3.0008    0.0000 O   0  0
   -1.3032    3.7490    0.0000 C   0  0
   -1.2990    0.7500    0.0000 C   0  0
   -1.2990   -0.7500    0.0000 C   0  0
   -2.5972   -1.5031    0.0000 O   0  0
   -2.5951   -3.0039    0.0000 C   0  0
   -3.8933   -3.7570    0.0000 C   0  0
   -3.8934   -5.2570    0.0000 C   0  0
   -5.1924   -6.0071    0.0000 C   0  0
   -6.4914   -5.2571    0.0000 C   0  0
   -7.7927   -6.0049    0.0000 C   0  0
   -9.0914   -5.2527    0.0000 C   0  0
  -10.3927   -6.0004    0.0000 N   0  0
  -11.6918   -5.2505    0.0000 C   0  0
  -12.9908   -6.0005    0.0000 C   0  0
  -12.9908   -7.5005    0.0000 N   0  0
  -14.2905   -8.2509    0.0000 C   0  0
  -15.5909   -7.5030    0.0000 C   0  0
  -16.8887   -8.2551    0.0000 C   0  0
  -16.8863   -9.7551    0.0000 C   0  0
  -15.5861  -10.5030    0.0000 C   0  0
  -15.5837  -12.0030    0.0000 Cl  0  0
  -14.2882   -9.7509    0.0000 C   0  0
  -11.6918   -8.2505    0.0000 C   0  0
  -10.3928   -7.5005    0.0000 C   0  0
   -6.4915   -3.7571    0.0000 C   0  0
   -5.1925   -3.0071    0.0000 C   0  0
    0.0000   -1.5000    0.0000 C   0  0
  1  2  1  0
  2  3  1  0
  3  4  2  0
  4  5  1  0
  5  6  1  0
  6  7  1  0
  5  8  2  0
  8  9  1  0
  9 10  1  0
 10 11  1  0
 11 12  1  0
 12 13  2  0
 13 14  1  0
 14 15  2  0
 15 16  1  0
 16 17  1  0
 17 18  1  0
 18 19  1  0
 19 20  1  0
 20 21  1  0
 21 22  1  0
 22 23  2  0
 23 24  1  0
 24 25  2  0
 25 26  1  0
 26 27  1  0
 26 28  2  0
 28 22  1  0
 21 29  1  0
 29 30  1  0
 30 18  1  0
 15 31  1  0
 31 32  2  0
 32 12  1  0
  9 33  2  0
 33  3  1  0
M  END
> <assay_chembl_id>
CHEMBL3378460

> <assay_description>
Cytotoxicity against human LNCAP cells assessed as inhibition of cell viability after 24 hrs by CCK-8 assay

> <document_journal>
Bioorg Med Chem Lett

> <molecule_chembl_id>
CHEMBL3354927

> <standard_value>
36570

> <IC50_uM>
36.57

> <Activity>
No

> <RemovedSalts>
HCl

> <Canonical_Smiles>
COc1cc(OC)cc(OCc2ccc(CCN3CCN(c4cccc(Cl)c4)CC3)cc2)c1.Cl

$$$$

  SciTegic03142313312D

 36 39  0  0  0  0            999 V2000
    2.5951   -3.0031    0.0000 C   0  0
    2.5973   -1.5031    0.0000 O   0  0
    1.2990   -0.7500    0.0000 C   0  0
    1.2990    0.7500    0.0000 C   0  0
    0.0000    1.5000    0.0000 C   0  0
   -0.0031    3.0008    0.0000 O   0  0
   -1.3032    3.7490    0.0000 C   0  0
   -1.2990    0.7500    0.0000 C   0  0
   -1.2990   -0.7500    0.0000 C   0  0
   -2.5972   -1.5031    0.0000 O   0  0
   -2.5951   -3.0039    0.0000 C   0  0
   -3.8933   -3.7570    0.0000 C   0  0
   -3.8934   -5.2570    0.0000 C   0  0
   -5.1924   -6.0071    0.0000 C   0  0
   -6.4914   -5.2571    0.0000 C   0  0
   -7.7927   -6.0049    0.0000 C   0  0
   -9.0914   -5.2527    0.0000 C   0  0
  -10.3927   -6.0004    0.0000 N   0  0
  -11.6918   -5.2505    0.0000 C   0  0
  -12.9908   -6.0005    0.0000 C   0  0
  -12.9908   -7.5005    0.0000 N   0  0
  -14.2905   -8.2509    0.0000 C   0  0
  -14.2882   -9.7509    0.0000 C   0  0
  -15.5861  -10.5030    0.0000 C   0  0
  -16.8863   -9.7551    0.0000 C   0  0
  -16.8887   -8.2551    0.0000 C   0  0
  -15.5908   -7.5030    0.0000 C   0  0
  -15.5933   -6.0022    0.0000 S   0  0
  -14.2952   -5.2505    0.0000 C   0  0
  -16.8931   -5.2535    0.0000 O   0  0
  -15.5950   -4.5022    0.0000 O   0  0
  -11.6918   -8.2505    0.0000 C   0  0
  -10.3928   -7.5005    0.0000 C   0  0
   -6.4915   -3.7571    0.0000 C   0  0
   -5.1925   -3.0071    0.0000 C   0  0
    0.0000   -1.5000    0.0000 C   0  0
  1  2  1  0
  2  3  1  0
  3  4  2  0
  4  5  1  0
  5  6  1  0
  6  7  1  0
  5  8  2  0
  8  9  1  0
  9 10  1  0
 10 11  1  0
 11 12  1  0
 12 13  2  0
 13 14  1  0
 14 15  2  0
 15 16  1  0
 16 17  1  0
 17 18  1  0
 18 19  1  0
 19 20  1  0
 20 21  1  0
 21 22  1  0
 22 23  2  0
 23 24  1  0
 24 25  2  0
 25 26  1  0
 26 27  2  0
 27 22  1  0
 27 28  1  0
 28 29  1  0
 28 30  2  0
 28 31  2  0
 21 32  1  0
 32 33  1  0
 33 18  1  0
 15 34  1  0
 34 35  2  0
 35 12  1  0
  9 36  2  0
 36  3  1  0
M  END
> <assay_chembl_id>
CHEMBL3378460

> <assay_description>
Cytotoxicity against human LNCAP cells assessed as inhibition of cell viability after 24 hrs by CCK-8 assay

> <document_journal>
Bioorg Med Chem Lett

> <molecule_chembl_id>
CHEMBL3354934

> <standard_value>
970

> <IC50_uM>
0.97

> <Activity>
Yes

> <RemovedSalts>
HCl

> <Canonical_Smiles>
COc1cc(OC)cc(OCc2ccc(CCN3CCN(c4ccccc4S(C)(=O)=O)CC3)cc2)c1.Cl

$$$$

  SciTegic03142313312D

 29 32  0  0  0  0            999 V2000
   14.3053   -0.7442    0.0000 C   0  0
   13.0040   -1.4903    0.0000 O   0  0
   12.9985   -2.9911    0.0000 C   0  0
   14.2964   -3.7431    0.0000 C   0  0
   14.2940   -5.2431    0.0000 C   0  0
   12.9938   -5.9911    0.0000 C   0  0
   11.6959   -5.2391    0.0000 C   0  0
   11.6982   -3.7390    0.0000 C   0  0
   10.3985   -2.9887    0.0000 N   0  0
   10.3984   -1.4887    0.0000 C   0  0
    9.0994   -0.7387    0.0000 C   0  0
    7.8003   -1.4887    0.0000 N   0  0
    6.4990   -0.7409    0.0000 C   0  0
    5.2003   -1.4932    0.0000 C   0  0  3  0  0  0
    5.2029   -2.9932    0.0000 O   0  0
    3.8990   -0.7455    0.0000 C   0  0
    2.6003   -1.4977    0.0000 O   0  0
    1.2990   -0.7500    0.0000 C   0  0
    1.2990    0.7500    0.0000 C   0  0
    0.0000    1.5000    0.0000 C   0  0
   -1.2990    0.7500    0.0000 C   0  0
   -1.2990   -0.7500    0.0000 C   0  0
   -2.5981   -1.5000    0.0000 C   0  0
   -2.5981   -3.0000    0.0000 C   0  0
   -1.2990   -3.7500    0.0000 C   0  0
    0.0000   -3.0000    0.0000 C   0  0
    0.0000   -1.5000    0.0000 C   0  0
    7.8004   -2.9887    0.0000 C   0  0
    9.0995   -3.7387    0.0000 C   0  0
  1  2  1  0
  2  3  1  0
  3  4  2  0
  4  5  1  0
  5  6  2  0
  6  7  1  0
  7  8  2  0
  8  3  1  0
  8  9  1  0
  9 10  1  0
 10 11  1  0
 11 12  1  0
 12 13  1  0
 13 14  1  0
 14 15  1  4
 14 16  1  0
 16 17  1  0
 17 18  1  0
 18 19  2  0
 19 20  1  0
 20 21  2  0
 21 22  1  0
 22 23  2  0
 23 24  1  0
 24 25  2  0
 25 26  1  0
 26 27  2  0
 27 18  1  0
 27 22  1  0
 12 28  1  0
 28 29  1  0
 29  9  1  0
M  END
> <assay_chembl_id>
CHEMBL3378460

> <assay_description>
Cytotoxicity against human LNCAP cells assessed as inhibition of cell viability after 24 hrs by CCK-8 assay

> <document_journal>
Bioorg Med Chem Lett

> <molecule_chembl_id>
CHEMBL142635

> <standard_value>
22360

> <IC50_uM>
22.36

> <Activity>
No

> <Canonical_Smiles>
COc1ccccc1N1CCN(CC(O)COc2cccc3ccccc23)CC1

$$$$

  SciTegic03142313312D

 32 36  0  0  1  0            999 V2000
   -0.9714  -12.0051    0.0000 C   0  0
    0.0448  -10.9018    0.0000 C   0  0
   -0.4026   -9.4701    0.0000 C   0  0
    0.6137   -8.3668    0.0000 C   0  0
    0.1660   -6.9343    0.0000 C   0  0
   -0.2816   -5.5018    0.0000 C   0  0
   -0.7292   -4.0692    0.0000 C   0  0
   -2.1929   -3.7413    0.0000 O   0  0
    0.2851   -2.9666    0.0000 C   0  0  1  0  0  0
    1.7758   -3.1329    0.0000 C   0  0
    2.3947   -1.7666    0.0000 C   0  0
    1.2990   -0.7500    0.0000 C   0  0  1  0  0  0
    1.2990    0.7500    0.0000 C   0  0  2  0  0  0
    2.5981    1.5000    0.0000 C   0  0
    2.5981    3.0000    0.0000 C   0  0
    1.2990    3.7500    0.0000 C   0  0
    1.2990    5.2500    0.0000 C   0  0
    0.0000    6.0000    0.0000 C   0  0  1  0  0  0
   -0.0001    7.5000    0.0000 O   0  0
   -1.2991    5.2500    0.0000 C   0  0
   -1.2991    3.7500    0.0000 C   0  0
    0.0000    3.0000    0.0000 C   0  0  1  0  0  0
   -1.2991    2.2500    0.0000 C   0  0
    0.0000    1.5000    0.0000 C   0  0  1  0  0  0
   -1.2990    0.7500    0.0000 C   0  0
   -1.2990   -0.7500    0.0000 C   0  0
    0.0000   -1.5000    0.0000 C   0  0  2  0  0  0
   -1.2212   -2.3711    0.0000 C   0  0
    2.0773   -8.6952    0.0000 C   0  0
    2.5246  -10.1270    0.0000 C   0  0
    1.5084  -11.2303    0.0000 C   0  0
    1.9558  -12.6620    0.0000 F   0  0
  1  2  1  0
  2  3  2  0
  3  4  1  0
  4  5  1  0
  5  6  3  0
  6  7  1  0
  7  8  2  0
  9  7  1  6
  9 10  1  0
 10 11  1  0
 12 11  1  6
 12 13  1  0
 13 14  1  1
 14 15  1  0
 15 16  2  0
 16 17  1  0
 17 18  1  0
 18 19  1  6
 18 20  1  0
 20 21  1  0
 21 22  1  0
 22 16  1  0
 22 23  1  6
 22 24  1  0
 24 13  1  0
 24 25  1  6
 25 26  1  0
 26 27  1  0
 27  9  1  0
 27 12  1  0
 27 28  1  6
  4 29  2  0
 29 30  1  0
 30 31  2  0
 31  2  1  0
 31 32  1  0
M  END
> <assay_chembl_id>
CHEMBL3389719

> <assay_description>
Cytotoxic activity against human LNCAP cells after 48 hrs by MTT assay

> <document_journal>
Bioorg Med Chem

> <molecule_chembl_id>
CHEMBL3357746

> <standard_value>
38400

> <IC50_uM>
38.4

> <Activity>
No

> <Canonical_Smiles>
Cc1cc(C#CC(=O)[C@H]2CC[C@H]3[C@@H]4CC=C5C[C@@H](O)CC[C@]5(C)[C@H]4CC[C@]23C)ccc1F

$$$$

  SciTegic03142313312D

 33 37  0  0  1  0            999 V2000
    1.9558  -12.6620    0.0000 C   0  0
    1.5084  -11.2303    0.0000 C   0  0
    0.0448  -10.9018    0.0000 C   0  0
   -0.4026   -9.4701    0.0000 C   0  0
   -1.8662   -9.1417    0.0000 C   0  0
    0.6137   -8.3668    0.0000 C   0  0
    0.1660   -6.9343    0.0000 C   0  0
   -0.2816   -5.5018    0.0000 C   0  0
   -0.7292   -4.0692    0.0000 C   0  0
   -2.1929   -3.7413    0.0000 O   0  0
    0.2851   -2.9666    0.0000 C   0  0  1  0  0  0
    1.7758   -3.1329    0.0000 C   0  0
    2.3947   -1.7666    0.0000 C   0  0
    1.2990   -0.7500    0.0000 C   0  0  1  0  0  0
    1.2990    0.7500    0.0000 C   0  0  2  0  0  0
    2.5981    1.5000    0.0000 C   0  0
    2.5981    3.0000    0.0000 C   0  0
    1.2990    3.7500    0.0000 C   0  0
    1.2990    5.2500    0.0000 C   0  0
    0.0000    6.0000    0.0000 C   0  0  1  0  0  0
   -0.0001    7.5000    0.0000 O   0  0
   -1.2991    5.2500    0.0000 C   0  0
   -1.2991    3.7500    0.0000 C   0  0
    0.0000    3.0000    0.0000 C   0  0  1  0  0  0
   -1.2991    2.2500    0.0000 C   0  0
    0.0000    1.5000    0.0000 C   0  0  1  0  0  0
   -1.2990    0.7500    0.0000 C   0  0
   -1.2990   -0.7500    0.0000 C   0  0
    0.0000   -1.5000    0.0000 C   0  0  2  0  0  0
   -1.2212   -2.3711    0.0000 C   0  0
    2.0773   -8.6952    0.0000 C   0  0
    2.5246  -10.1270    0.0000 C   0  0
    3.9882  -10.4554    0.0000 C   0  0
  1  2  1  0
  2  3  2  0
  3  4  1  0
  4  5  1  0
  4  6  2  0
  6  7  1  0
  7  8  3  0
  8  9  1  0
  9 10  2  0
 11  9  1  6
 11 12  1  0
 12 13  1  0
 14 13  1  6
 14 15  1  0
 15 16  1  1
 16 17  1  0
 17 18  2  0
 18 19  1  0
 19 20  1  0
 20 21  1  6
 20 22  1  0
 22 23  1  0
 23 24  1  0
 24 18  1  0
 24 25  1  6
 24 26  1  0
 26 15  1  0
 26 27  1  6
 27 28  1  0
 28 29  1  0
 29 11  1  0
 29 14  1  0
 29 30  1  6
  6 31  1  0
 31 32  2  0
 32  2  1  0
 32 33  1  0
M  END
> <assay_chembl_id>
CHEMBL3389719

> <assay_description>
Cytotoxic activity against human LNCAP cells after 48 hrs by MTT assay

> <document_journal>
Bioorg Med Chem

> <molecule_chembl_id>
CHEMBL3357747

> <standard_value>
46200

> <IC50_uM>
46.2

> <Activity>
No

> <Canonical_Smiles>
Cc1cc(C)c(C#CC(=O)[C@H]2CC[C@H]3[C@@H]4CC=C5C[C@@H](O)CC[C@]5(C)[C@H]4CC[C@]23C)cc1C

$$$$

  SciTegic03142313312D

 33 37  0  0  1  0            999 V2000
    3.4230  -12.9882    0.0000 C   0  0
    1.9590  -12.6619    0.0000 O   0  0
    1.5084  -11.2303    0.0000 C   0  0
    0.0448  -10.9018    0.0000 C   0  0
   -0.4026   -9.4701    0.0000 C   0  0
    0.6137   -8.3668    0.0000 C   0  0
    0.1660   -6.9343    0.0000 C   0  0
   -0.2816   -5.5018    0.0000 C   0  0
   -0.7292   -4.0692    0.0000 C   0  0
   -2.1929   -3.7413    0.0000 O   0  0
    0.2851   -2.9666    0.0000 C   0  0  1  0  0  0
    1.7758   -3.1329    0.0000 C   0  0
    2.3947   -1.7666    0.0000 C   0  0
    1.2990   -0.7500    0.0000 C   0  0  1  0  0  0
    1.2990    0.7500    0.0000 C   0  0  2  0  0  0
    2.5981    1.5000    0.0000 C   0  0
    2.5981    3.0000    0.0000 C   0  0
    1.2990    3.7500    0.0000 C   0  0
    1.2990    5.2500    0.0000 C   0  0
    0.0000    6.0000    0.0000 C   0  0  1  0  0  0
   -0.0001    7.5000    0.0000 O   0  0
   -1.2991    5.2500    0.0000 C   0  0
   -1.2991    3.7500    0.0000 C   0  0
    0.0000    3.0000    0.0000 C   0  0  1  0  0  0
   -1.2991    2.2500    0.0000 C   0  0
    0.0000    1.5000    0.0000 C   0  0  1  0  0  0
   -1.2990    0.7500    0.0000 C   0  0
   -1.2990   -0.7500    0.0000 C   0  0
    0.0000   -1.5000    0.0000 C   0  0  2  0  0  0
   -1.2212   -2.3711    0.0000 C   0  0
    2.0773   -8.6952    0.0000 C   0  0
    3.0935   -7.5919    0.0000 C   0  0
    2.5246  -10.1270    0.0000 C   0  0
  1  2  1  0
  2  3  1  0
  3  4  2  0
  4  5  1  0
  5  6  2  0
  6  7  1  0
  7  8  3  0
  8  9  1  0
  9 10  2  0
 11  9  1  6
 11 12  1  0
 12 13  1  0
 14 13  1  6
 14 15  1  0
 15 16  1  1
 16 17  1  0
 17 18  2  0
 18 19  1  0
 19 20  1  0
 20 21  1  6
 20 22  1  0
 22 23  1  0
 23 24  1  0
 24 18  1  0
 24 25  1  6
 24 26  1  0
 26 15  1  0
 26 27  1  6
 27 28  1  0
 28 29  1  0
 29 11  1  0
 29 14  1  0
 29 30  1  6
  6 31  1  0
 31 32  1  0
 31 33  2  0
 33  3  1  0
M  END
> <assay_chembl_id>
CHEMBL3387880

> <assay_description>
Cytotoxic activity against human LNCAP cells after 24 hrs by MTT assay

> <document_journal>
Bioorg Med Chem

> <molecule_chembl_id>
CHEMBL3357748

> <standard_value>
41700

> <IC50_uM>
41.7

> <Activity>
No

> <Canonical_Smiles>
COc1ccc(C#CC(=O)[C@H]2CC[C@H]3[C@@H]4CC=C5C[C@@H](O)CC[C@]5(C)[C@H]4CC[C@]23C)c(C)c1

$$$$

  SciTegic03142313312D

 34 38  0  0  1  0            999 V2000
    2.6640   -0.1280    0.0000 C   0  0
    1.2990   -0.7500    0.0000 C   0  0  2  0  0  0
    1.2990    0.7500    0.0000 C   0  0
    0.0000    1.5000    0.0000 C   0  0
   -1.2990    0.7500    0.0000 C   0  0  1  0  0  0
   -1.2990   -0.7500    0.0000 C   0  0  1  0  0  0
   -2.5981   -1.5000    0.0000 C   0  0
   -3.8971   -0.7500    0.0000 C   0  0
   -3.8971    0.7500    0.0000 C   0  0
   -5.1962    1.5000    0.0000 C   0  0
   -5.1962    3.0000    0.0000 C   0  0  1  0  0  0
   -6.4952    3.7500    0.0000 O   0  0
   -3.8971    3.7500    0.0000 C   0  0
   -2.5981    3.0000    0.0000 C   0  0
   -2.5981    1.5000    0.0000 C   0  0  2  0  0  0
   -1.2990    2.2500    0.0000 C   0  0
    0.0000   -1.5000    0.0000 C   0  0  2  0  0  0
    0.3326   -2.9571    0.0000 C   0  0
    1.8253   -3.1044    0.0000 C   0  0
    2.4266   -1.7302    0.0000 C   0  0  2  0  0  0
    3.8873   -1.3970    0.0000 C   0  0
    4.9070   -2.4971    0.0000 O   0  0
    4.3308    0.0368    0.0000 C   0  0
    4.7742    1.4706    0.0000 C   0  0
    5.2177    2.9044    0.0000 C   0  0
    6.6803    3.2371    0.0000 C   0  0
    7.1236    4.6701    0.0000 C   0  0
    6.1041    5.7704    0.0000 C   0  0
    4.6415    5.4378    0.0000 C   0  0
    3.6215    6.5387    0.0000 C   0  0
    4.0638    7.9720    0.0000 F   0  0
    2.1590    6.2056    0.0000 F   0  0
    2.6016    7.6386    0.0000 F   0  0
    4.1983    4.0047    0.0000 C   0  0
  2  1  1  1
  2  3  1  0
  3  4  1  0
  5  4  1  1
  5  6  1  0
  6  7  1  6
  7  8  1  0
  8  9  2  0
  9 10  1  0
 10 11  1  0
 11 12  1  1
 11 13  1  0
 13 14  1  0
 14 15  1  0
 15  9  1  0
 15  5  1  0
 15 16  1  1
  6 17  1  0
 17  2  1  0
 17 18  1  1
 18 19  1  0
 19 20  1  0
 20  2  1  0
 20 21  1  1
 21 22  2  0
 21 23  1  0
 23 24  3  0
 24 25  1  0
 25 26  2  0
 26 27  1  0
 27 28  2  0
 28 29  1  0
 29 30  1  0
 30 31  1  0
 30 32  1  0
 30 33  1  0
 29 34  2  0
 34 25  1  0
M  END
> <assay_chembl_id>
CHEMBL3387880

> <assay_description>
Cytotoxic activity against human LNCAP cells after 24 hrs by MTT assay

> <document_journal>
Bioorg Med Chem

> <molecule_chembl_id>
CHEMBL3357750

> <standard_value>
26200

> <IC50_uM>
26.2

> <Activity>
No

> <Canonical_Smiles>
C[C@]12CC[C@H]3[C@@H](CC=C4C[C@@H](O)CC[C@@]43C)[C@@H]1CC[C@@H]2C(=O)C#Cc1cccc(C(F)(F)F)c1

$$$$

  SciTegic03142313312D

 32 36  0  0  1  0            999 V2000
    3.4230  -12.9882    0.0000 C   0  0
    1.9590  -12.6619    0.0000 O   0  0
    1.5084  -11.2303    0.0000 C   0  0
    0.0448  -10.9018    0.0000 C   0  0
   -0.4026   -9.4701    0.0000 C   0  0
    0.6137   -8.3668    0.0000 C   0  0
    0.1660   -6.9343    0.0000 C   0  0
   -0.2816   -5.5018    0.0000 C   0  0
   -0.7292   -4.0692    0.0000 C   0  0
   -2.1929   -3.7413    0.0000 O   0  0
    0.2851   -2.9666    0.0000 C   0  0  1  0  0  0
    1.7758   -3.1329    0.0000 C   0  0
    2.3947   -1.7666    0.0000 C   0  0
    1.2990   -0.7500    0.0000 C   0  0  1  0  0  0
    1.2990    0.7500    0.0000 C   0  0  2  0  0  0
    2.5981    1.5000    0.0000 C   0  0
    2.5981    3.0000    0.0000 C   0  0
    1.2990    3.7500    0.0000 C   0  0
    1.2990    5.2500    0.0000 C   0  0
    0.0000    6.0000    0.0000 C   0  0  1  0  0  0
   -0.0001    7.5000    0.0000 O   0  0
   -1.2991    5.2500    0.0000 C   0  0
   -1.2991    3.7500    0.0000 C   0  0
    0.0000    3.0000    0.0000 C   0  0  1  0  0  0
   -1.2991    2.2500    0.0000 C   0  0
    0.0000    1.5000    0.0000 C   0  0  1  0  0  0
   -1.2990    0.7500    0.0000 C   0  0
   -1.2990   -0.7500    0.0000 C   0  0
    0.0000   -1.5000    0.0000 C   0  0  2  0  0  0
   -1.2212   -2.3711    0.0000 C   0  0
    2.0773   -8.6952    0.0000 C   0  0
    2.5246  -10.1270    0.0000 C   0  0
  1  2  1  0
  2  3  1  0
  3  4  2  0
  4  5  1  0
  5  6  2  0
  6  7  1  0
  7  8  3  0
  8  9  1  0
  9 10  2  0
 11  9  1  6
 11 12  1  0
 12 13  1  0
 14 13  1  6
 14 15  1  0
 15 16  1  1
 16 17  1  0
 17 18  2  0
 18 19  1  0
 19 20  1  0
 20 21  1  6
 20 22  1  0
 22 23  1  0
 23 24  1  0
 24 18  1  0
 24 25  1  6
 24 26  1  0
 26 15  1  0
 26 27  1  6
 27 28  1  0
 28 29  1  0
 29 11  1  0
 29 14  1  0
 29 30  1  6
  6 31  1  0
 31 32  2  0
 32  3  1  0
M  END
> <assay_chembl_id>
CHEMBL3389719

> <assay_description>
Cytotoxic activity against human LNCAP cells after 48 hrs by MTT assay

> <document_journal>
Bioorg Med Chem

> <molecule_chembl_id>
CHEMBL3357752

> <standard_value>
47600

> <IC50_uM>
47.6

> <Activity>
No

> <Canonical_Smiles>
COc1ccc(C#CC(=O)[C@H]2CC[C@H]3[C@@H]4CC=C5C[C@@H](O)CC[C@]5(C)[C@H]4CC[C@]23C)cc1

$$$$

  SciTegic03142313312D

 21 25  0  0  0  0            999 V2000
    3.8805   -1.4410    0.0000 O   0  0
    2.4133   -1.7530    0.0000 C   0  0
    1.2990   -0.7500    0.0000 C   0  0
    1.2990    0.7500    0.0000 C   0  0
    0.0000    1.5000    0.0000 C   0  0
   -1.2990    0.7500    0.0000 C   0  0
   -1.2990   -0.7500    0.0000 C   0  0
    0.0000   -1.5000    0.0000 C   0  0
    0.3114   -2.9665    0.0000 N   0  3
   -0.5701   -4.1788    0.0000 C   0  0
    0.0400   -5.5491    0.0000 C   0  0
    1.5318   -5.7059    0.0000 C   0  0
    2.4135   -4.4923    0.0000 C   0  0
    3.8394   -4.9554    0.0000 N   0  0
    3.8394   -6.4554    0.0000 C   0  0
    4.9537   -7.4579    0.0000 C   0  0
    4.6418   -8.9251    0.0000 C   0  0
    3.2153   -9.3886    0.0000 C   0  0
    2.1005   -8.3849    0.0000 C   0  0
    2.4128   -6.9189    0.0000 C   0  0
    1.8032   -3.1233    0.0000 C   0  0
  1  2  2  0
  2  3  1  0
  3  4  2  0
  4  5  1  0
  5  6  2  0
  6  7  1  0
  7  8  2  0
  8  3  1  0
  8  9  1  0
  9 10  2  0
 10 11  1  0
 11 12  2  0
 12 13  1  0
 13 14  1  0
 14 15  1  0
 15 16  2  0
 16 17  1  0
 17 18  2  0
 18 19  1  0
 19 20  2  0
 20 15  1  0
 20 12  1  0
 13 21  2  0
 21  9  1  0
 21  2  1  0
M  CHG  1   9   1
M  END
> <assay_chembl_id>
CHEMBL3361817

> <assay_description>
Cytotoxicity against human LNCAP cells after 72 hrs by Alamar Blue assay

> <document_journal>
Bioorg Med Chem Lett

> <molecule_chembl_id>
CHEMBL602937

> <standard_value>
540

> <IC50_uM>
0.54

> <Activity>
Yes

> <Canonical_Smiles>
O=C1c2ccccc2-[n+]2ccc3c([nH]c4ccccc43)c21

$$$$

  SciTegic03142313312D

 22 26  0  0  0  0            999 V2000
    3.8805   -1.4410    0.0000 O   0  0
    2.4133   -1.7530    0.0000 C   0  0
    1.2990   -0.7500    0.0000 C   0  0
    1.2990    0.7500    0.0000 C   0  0
    0.0000    1.5000    0.0000 C   0  0
   -1.2990    0.7500    0.0000 C   0  0
   -1.2990   -0.7500    0.0000 C   0  0
    0.0000   -1.5000    0.0000 C   0  0
    0.3114   -2.9665    0.0000 N   0  0
    1.8032   -3.1233    0.0000 C   0  0
    2.4135   -4.4923    0.0000 C   0  0
    3.8394   -4.9554    0.0000 N   0  0
    3.8394   -6.4554    0.0000 C   0  0
    4.9537   -7.4579    0.0000 C   0  0
    4.6418   -8.9251    0.0000 C   0  0
    3.2152   -9.3886    0.0000 C   0  0
    2.1005   -8.3849    0.0000 C   0  0
    2.4128   -6.9189    0.0000 C   0  0
    1.5318   -5.7059    0.0000 C   0  0
    0.0400   -5.5491    0.0000 C   0  0
   -0.5701   -4.1788    0.0000 C   0  0
   -2.0618   -4.0217    0.0000 O   0  0
  1  2  2  0
  2  3  1  0
  3  4  2  0
  4  5  1  0
  5  6  2  0
  6  7  1  0
  7  8  2  0
  8  3  1  0
  8  9  1  0
  9 10  1  0
 10  2  1  0
 10 11  2  0
 11 12  1  0
 12 13  1  0
 13 14  2  0
 14 15  1  0
 15 16  2  0
 16 17  1  0
 17 18  2  0
 18 13  1  0
 18 19  1  0
 19 11  1  0
 19 20  2  0
 20 21  1  0
 21  9  1  0
 21 22  2  0
M  END
> <assay_chembl_id>
CHEMBL3361817

> <assay_description>
Cytotoxicity against human LNCAP cells after 72 hrs by Alamar Blue assay

> <document_journal>
Bioorg Med Chem Lett

> <molecule_chembl_id>
CHEMBL3309494

> <standard_value>
22900

> <IC50_uM>
22.9

> <Activity>
No

> <Canonical_Smiles>
O=C1c2ccccc2-n2c1c1[nH]c3ccccc3c1cc2=O

$$$$

  SciTegic03142313312D

 23 26  0  0  0  0            999 V2000
    5.2059    1.4944    0.0000 O   0  0
    3.9046    0.7483    0.0000 C   0  0
    2.6081    1.5027    0.0000 O   0  0
    3.8991   -0.7525    0.0000 C   0  0
    5.1969   -1.5045    0.0000 C   0  0
    5.1945   -3.0045    0.0000 C   0  0
    3.8943   -3.7525    0.0000 C   0  0
    2.5965   -3.0004    0.0000 C   0  0
    2.5987   -1.5004    0.0000 C   0  0
    1.2990   -0.7500    0.0000 N   0  0
    1.2990    0.7500    0.0000 C   0  0
    0.0000    1.5000    0.0000 C   0  0
   -1.2990    0.7500    0.0000 C   0  0
   -1.2990   -0.7500    0.0000 C   0  0
   -2.7248   -1.2135    0.0000 N   0  0
   -3.6065    0.0000    0.0000 C   0  0
   -5.0972    0.1560    0.0000 C   0  0
   -5.7073    1.5264    0.0000 C   0  0
   -4.8257    2.7399    0.0000 C   0  0
   -3.3339    2.5831    0.0000 C   0  0
   -2.7248    1.2135    0.0000 C   0  0
    0.0000   -1.5000    0.0000 C   0  0
    0.0000   -3.0000    0.0000 O   0  0
  1  2  2  0
  2  3  1  0
  2  4  1  0
  4  5  2  0
  5  6  1  0
  6  7  2  0
  7  8  1  0
  8  9  2  0
  9  4  1  0
  9 10  1  0
 10 11  1  0
 11 12  2  0
 12 13  1  0
 13 14  2  0
 14 15  1  0
 15 16  1  0
 16 17  2  0
 17 18  1  0
 18 19  2  0
 19 20  1  0
 20 21  2  0
 21 16  1  0
 21 13  1  0
 14 22  1  0
 22 10  1  0
 22 23  2  0
M  END
> <assay_chembl_id>
CHEMBL3361817

> <assay_description>
Cytotoxicity against human LNCAP cells after 72 hrs by Alamar Blue assay

> <document_journal>
Bioorg Med Chem Lett

> <molecule_chembl_id>
CHEMBL3309495

> <standard_value>
44900

> <IC50_uM>
44.9

> <Activity>
No

> <Canonical_Smiles>
O=C(O)c1ccccc1-n1ccc2c([nH]c3ccccc32)c1=O

$$$$

  SciTegic03142313312D

 22 25  0  0  0  0            999 V2000
    5.2059    1.4944    0.0000 O   0  0
    3.9046    0.7483    0.0000 C   0  0
    2.6081    1.5027    0.0000 O   0  0
    3.8991   -0.7525    0.0000 C   0  0
    5.1969   -1.5045    0.0000 C   0  0
    5.1945   -3.0045    0.0000 C   0  0
    3.8943   -3.7525    0.0000 C   0  0
    2.5965   -3.0004    0.0000 C   0  0
    2.5987   -1.5004    0.0000 C   0  0
    1.2990   -0.7500    0.0000 N   0  3
    1.2990    0.7500    0.0000 C   0  0
    0.0000    1.5000    0.0000 C   0  0
   -1.2990    0.7500    0.0000 C   0  0
   -1.2990   -0.7500    0.0000 C   0  0
    0.0000   -1.5000    0.0000 C   0  0
   -2.7248   -1.2135    0.0000 N   0  0
   -3.6065    0.0000    0.0000 C   0  0
   -5.0972    0.1560    0.0000 C   0  0
   -5.7073    1.5264    0.0000 C   0  0
   -4.8257    2.7399    0.0000 C   0  0
   -3.3339    2.5831    0.0000 C   0  0
   -2.7248    1.2135    0.0000 C   0  0
  1  2  2  0
  2  3  1  0
  2  4  1  0
  4  5  2  0
  5  6  1  0
  6  7  2  0
  7  8  1  0
  8  9  2  0
  9  4  1  0
  9 10  1  0
 10 11  2  0
 11 12  1  0
 12 13  2  0
 13 14  1  0
 14 15  2  0
 15 10  1  0
 14 16  1  0
 16 17  1  0
 17 18  2  0
 18 19  1  0
 19 20  2  0
 20 21  1  0
 21 22  2  0
 22 17  1  0
 22 13  1  0
M  CHG  1  10   1
M  END
> <assay_chembl_id>
CHEMBL3361817

> <assay_description>
Cytotoxicity against human LNCAP cells after 72 hrs by Alamar Blue assay

> <document_journal>
Bioorg Med Chem Lett

> <molecule_chembl_id>
CHEMBL487608

> <standard_value>
25860

> <IC50_uM>
25.86

> <Activity>
No

> <RemovedSalts>
Cl-

> <Canonical_Smiles>
O=C(O)c1ccccc1-[n+]1ccc2c(c1)[nH]c1ccccc12.[Cl-]

$$$$

  SciTegic03142313312D

 50 52  0  0  1  0            999 V2000
    1.5209   -0.3790    0.0000 C   0  0
    2.8261    0.3603    0.0000 O   0  0
    4.1200   -0.4000    0.0000 C   0  0  1  0  0  0
    5.4200    0.3400    0.0000 C   0  0
    5.4200    1.8400    0.0000 C   0  0
    4.1200    2.6000    0.0000 C   0  0
    2.8100    1.8400    0.0000 C   0  0
    2.8075    0.3400    0.0000 C   0  0
    1.5100    2.6000    0.0000 C   0  0
    1.5125    4.1000    0.0000 O   0  0
    0.2000    1.8400    0.0000 N   0  0
   -1.0900    2.6000    0.0000 C   0  0
   -1.0900    4.1100    0.0000 C   0  0
   -2.4000    4.8600    0.0000 C   0  0
   -2.4025    6.3600    0.0000 O   0  0
   -3.7000    4.1100    0.0000 C   0  0
   -4.9968    4.8654    0.0000 N   0  0
   -4.9919    6.3662    0.0000 C   0  0
   -6.2887    7.1217    0.0000 C   0  0
   -6.2860    8.6217    0.0000 C   0  0
   -7.5837    9.3741    0.0000 C   0  0
   -8.8841    8.6266    0.0000 C   0  0
  -10.1824    9.3794    0.0000 S   0  0
  -11.4826    8.6314    0.0000 C   0  0
  -10.1806   10.8794    0.0000 O   0  0
  -11.4804   10.1312    0.0000 O   0  0
   -8.8869    7.1266    0.0000 C   0  0
   -7.5892    6.3741    0.0000 C   0  0
   -3.7000    2.6000    0.0000 C   0  0
   -5.0100    1.8400    0.0000 C   0  0
   -5.0100    0.3400    0.0000 C   0  0  1  0  0  0
   -6.3055   -0.4161    0.0000 C   0  0
   -3.7000   -0.4000    0.0000 C   0  0
   -3.2700   -2.0600    0.0000 C   0  0  2  0  0  0
   -4.1920   -3.2317    0.0000 O   0  0
   -5.6765   -3.0162    0.0000 C   0  0
   -1.0900   -1.9100    0.0000 C   0  0  2  0  0  0
   -0.7453   -0.4501    0.0000 O   0  0
    0.2000   -2.6700    0.0000 C   0  0  1  0  0  0
    0.1950   -4.1700    0.0000 C   0  0
    1.5100   -1.9100    0.0000 C   0  0
    2.8100   -2.6700    0.0000 C   0  0
    2.8075   -4.1700    0.0000 C   0  0
    4.1200   -1.9100    0.0000 C   0  0  2  0  0  0
    5.4195   -2.6606    0.0000 O   0  0
    5.4202   -4.1615    0.0000 C   0  0
    4.1213   -4.9116    0.0000 N   0  0
    6.7191   -4.9117    0.0000 O   0  0
   -2.4000    1.8400    0.0000 C   0  0
   -2.4025    0.3400    0.0000 O   0  0
  1  2  1  0
  3  2  1  1
  3  4  1  0
  4  5  2  0
  5  6  1  0
  6  7  2  0
  7  8  1  0
  7  9  1  0
  9 10  2  0
  9 11  1  0
 11 12  1  0
 12 13  2  0
 13 14  1  0
 14 15  2  0
 14 16  1  0
 16 17  1  0
 17 18  1  0
 18 19  1  0
 19 20  2  0
 20 21  1  0
 21 22  2  0
 22 23  1  0
 23 24  1  0
 23 25  2  0
 23 26  2  0
 22 27  1  0
 27 28  2  0
 28 19  1  0
 16 29  2  0
 29 30  1  0
 30 31  1  0
 31 32  1  6
 31 33  1  0
 33 34  1  0
 34 35  1  1
 35 36  1  0
 34 37  1  0
 37 38  1  6
 37 39  1  0
 39 40  1  6
 39 41  1  0
 41 42  2  0
 42 43  1  0
 42 44  1  0
 44  3  1  0
 44 45  1  1
 45 46  1  0
 46 47  1  0
 46 48  2  0
 29 49  1  0
 49 12  1  0
 49 50  2  0
M  END
> <assay_chembl_id>
CHEMBL3364915

> <assay_description>
Cytotoxicity against human LNCAP cells after 72 hrs by MTT assay

> <document_journal>
Eur J Med Chem

> <molecule_chembl_id>
CHEMBL3327121

> <standard_value>
850

> <IC50_uM>
0.85

> <Activity>
Yes

> <Canonical_Smiles>
CO[C@H]1/C=C\C=C(/C)C(=O)NC2=CC(=O)C(NCc3ccc(S(C)(=O)=O)cc3)=C(C[C@@H](C)C[C@H](OC)[C@H](O)[C@@H](C)/C=C(\C)[C@@H]1OC(N)=O)C2=O

$$$$

  SciTegic03142313312D

 48 50  0  0  1  0            999 V2000
    1.5209   -0.3790    0.0000 C   0  0
    2.8261    0.3603    0.0000 O   0  0
    4.1200   -0.4000    0.0000 C   0  0  1  0  0  0
    5.4200    0.3400    0.0000 C   0  0
    5.4200    1.8400    0.0000 C   0  0
    4.1200    2.6000    0.0000 C   0  0
    2.8100    1.8400    0.0000 C   0  0
    2.8075    0.3400    0.0000 C   0  0
    1.5100    2.6000    0.0000 C   0  0
    1.5125    4.1000    0.0000 O   0  0
    0.2000    1.8400    0.0000 N   0  0
   -1.0900    2.6000    0.0000 C   0  0
   -1.0900    4.1100    0.0000 C   0  0
   -2.4000    4.8600    0.0000 C   0  0
   -2.4025    6.3600    0.0000 O   0  0
   -3.7000    4.1100    0.0000 C   0  0
   -4.9968    4.8654    0.0000 N   0  0
   -4.9919    6.3662    0.0000 C   0  0
   -6.2887    7.1217    0.0000 C   0  0
   -6.2860    8.6217    0.0000 C   0  0
   -7.5837    9.3741    0.0000 C   0  0
   -8.8841    8.6266    0.0000 C   0  0
  -10.1824    9.3794    0.0000 C   0  0
  -11.4801   10.1318    0.0000 N   0  0
   -8.8869    7.1266    0.0000 C   0  0
   -7.5892    6.3741    0.0000 C   0  0
   -3.7000    2.6000    0.0000 C   0  0
   -5.0100    1.8400    0.0000 C   0  0
   -5.0100    0.3400    0.0000 C   0  0  1  0  0  0
   -6.3055   -0.4161    0.0000 C   0  0
   -3.7000   -0.4000    0.0000 C   0  0
   -3.2700   -2.0600    0.0000 C   0  0  2  0  0  0
   -4.1920   -3.2317    0.0000 O   0  0
   -5.6765   -3.0162    0.0000 C   0  0
   -1.0900   -1.9100    0.0000 C   0  0  2  0  0  0
   -0.7453   -0.4501    0.0000 O   0  0
    0.2000   -2.6700    0.0000 C   0  0  1  0  0  0
    0.1950   -4.1700    0.0000 C   0  0
    1.5100   -1.9100    0.0000 C   0  0
    2.8100   -2.6700    0.0000 C   0  0
    2.8075   -4.1700    0.0000 C   0  0
    4.1200   -1.9100    0.0000 C   0  0  2  0  0  0
    5.4195   -2.6606    0.0000 O   0  0
    5.4202   -4.1615    0.0000 C   0  0
    4.1213   -4.9116    0.0000 N   0  0
    6.7191   -4.9117    0.0000 O   0  0
   -2.4000    1.8400    0.0000 C   0  0
   -2.4025    0.3400    0.0000 O   0  0
  1  2  1  0
  3  2  1  1
  3  4  1  0
  4  5  2  0
  5  6  1  0
  6  7  2  0
  7  8  1  0
  7  9  1  0
  9 10  2  0
  9 11  1  0
 11 12  1  0
 12 13  2  0
 13 14  1  0
 14 15  2  0
 14 16  1  0
 16 17  1  0
 17 18  1  0
 18 19  1  0
 19 20  2  0
 20 21  1  0
 21 22  2  0
 22 23  1  0
 23 24  3  0
 22 25  1  0
 25 26  2  0
 26 19  1  0
 16 27  2  0
 27 28  1  0
 28 29  1  0
 29 30  1  6
 29 31  1  0
 31 32  1  0
 32 33  1  1
 33 34  1  0
 32 35  1  0
 35 36  1  6
 35 37  1  0
 37 38  1  6
 37 39  1  0
 39 40  2  0
 40 41  1  0
 40 42  1  0
 42  3  1  0
 42 43  1  1
 43 44  1  0
 44 45  1  0
 44 46  2  0
 27 47  1  0
 47 12  1  0
 47 48  2  0
M  END
> <assay_chembl_id>
CHEMBL3364915

> <assay_description>
Cytotoxicity against human LNCAP cells after 72 hrs by MTT assay

> <document_journal>
Eur J Med Chem

> <molecule_chembl_id>
CHEMBL3327120

> <standard_value>
480

> <IC50_uM>
0.48

> <Activity>
Yes

> <Canonical_Smiles>
CO[C@H]1/C=C\C=C(/C)C(=O)NC2=CC(=O)C(NCc3ccc(C#N)cc3)=C(C[C@@H](C)C[C@H](OC)[C@H](O)[C@@H](C)/C=C(\C)[C@@H]1OC(N)=O)C2=O

$$$$

  SciTegic03142313312D

 47 49  0  0  1  0            999 V2000
    1.5209   -0.3790    0.0000 C   0  0
    2.8261    0.3603    0.0000 O   0  0
    4.1200   -0.4000    0.0000 C   0  0  1  0  0  0
    5.4200    0.3400    0.0000 C   0  0
    5.4200    1.8400    0.0000 C   0  0
    4.1200    2.6000    0.0000 C   0  0
    2.8100    1.8400    0.0000 C   0  0
    2.8075    0.3400    0.0000 C   0  0
    1.5100    2.6000    0.0000 C   0  0
    1.5125    4.1000    0.0000 O   0  0
    0.2000    1.8400    0.0000 N   0  0
   -1.0900    2.6000    0.0000 C   0  0
   -1.0900    4.1100    0.0000 C   0  0
   -2.4000    4.8600    0.0000 C   0  0
   -2.4025    6.3600    0.0000 O   0  0
   -3.7000    4.1100    0.0000 C   0  0
   -4.9968    4.8654    0.0000 N   0  0
   -4.9919    6.3662    0.0000 C   0  0
   -6.2887    7.1217    0.0000 C   0  0
   -6.2860    8.6217    0.0000 C   0  0
   -7.5837    9.3741    0.0000 C   0  0
   -8.8841    8.6266    0.0000 C   0  0
  -10.1817    9.3790    0.0000 N   0  0
   -8.8869    7.1266    0.0000 C   0  0
   -7.5892    6.3741    0.0000 C   0  0
   -3.7000    2.6000    0.0000 C   0  0
   -5.0100    1.8400    0.0000 C   0  0
   -5.0100    0.3400    0.0000 C   0  0  1  0  0  0
   -6.3055   -0.4161    0.0000 C   0  0
   -3.7000   -0.4000    0.0000 C   0  0
   -3.2700   -2.0600    0.0000 C   0  0  2  0  0  0
   -4.1920   -3.2317    0.0000 O   0  0
   -5.6765   -3.0162    0.0000 C   0  0
   -1.0900   -1.9100    0.0000 C   0  0  2  0  0  0
   -0.7453   -0.4501    0.0000 O   0  0
    0.2000   -2.6700    0.0000 C   0  0  1  0  0  0
    0.1950   -4.1700    0.0000 C   0  0
    1.5100   -1.9100    0.0000 C   0  0
    2.8100   -2.6700    0.0000 C   0  0
    2.8075   -4.1700    0.0000 C   0  0
    4.1200   -1.9100    0.0000 C   0  0  2  0  0  0
    5.4195   -2.6606    0.0000 O   0  0
    5.4202   -4.1615    0.0000 C   0  0
    4.1213   -4.9116    0.0000 N   0  0
    6.7191   -4.9117    0.0000 O   0  0
   -2.4000    1.8400    0.0000 C   0  0
   -2.4025    0.3400    0.0000 O   0  0
  1  2  1  0
  3  2  1  1
  3  4  1  0
  4  5  2  0
  5  6  1  0
  6  7  2  0
  7  8  1  0
  7  9  1  0
  9 10  2  0
  9 11  1  0
 11 12  1  0
 12 13  2  0
 13 14  1  0
 14 15  2  0
 14 16  1  0
 16 17  1  0
 17 18  1  0
 18 19  1  0
 19 20  2  0
 20 21  1  0
 21 22  2  0
 22 23  1  0
 22 24  1  0
 24 25  2  0
 25 19  1  0
 16 26  2  0
 26 27  1  0
 27 28  1  0
 28 29  1  6
 28 30  1  0
 30 31  1  0
 31 32  1  1
 32 33  1  0
 31 34  1  0
 34 35  1  6
 34 36  1  0
 36 37  1  6
 36 38  1  0
 38 39  2  0
 39 40  1  0
 39 41  1  0
 41  3  1  0
 41 42  1  1
 42 43  1  0
 43 44  1  0
 43 45  2  0
 26 46  1  0
 46 12  1  0
 46 47  2  0
M  END
> <assay_chembl_id>
CHEMBL3364915

> <assay_description>
Cytotoxicity against human LNCAP cells after 72 hrs by MTT assay

> <document_journal>
Eur J Med Chem

> <molecule_chembl_id>
CHEMBL3327118

> <standard_value>
50

> <IC50_uM>
0.05

> <Activity>
Yes

> <Canonical_Smiles>
CO[C@H]1/C=C\C=C(/C)C(=O)NC2=CC(=O)C(NCc3ccc(N)cc3)=C(C[C@@H](C)C[C@H](OC)[C@H](O)[C@@H](C)/C=C(\C)[C@@H]1OC(N)=O)C2=O

$$$$

  SciTegic03142313312D

 47 49  0  0  1  0            999 V2000
    1.5209   -0.3790    0.0000 C   0  0
    2.8261    0.3603    0.0000 O   0  0
    4.1200   -0.4000    0.0000 C   0  0  1  0  0  0
    5.4200    0.3400    0.0000 C   0  0
    5.4200    1.8400    0.0000 C   0  0
    4.1200    2.6000    0.0000 C   0  0
    2.8100    1.8400    0.0000 C   0  0
    2.8075    0.3400    0.0000 C   0  0
    1.5100    2.6000    0.0000 C   0  0
    1.5125    4.1000    0.0000 O   0  0
    0.2000    1.8400    0.0000 N   0  0
   -1.0900    2.6000    0.0000 C   0  0
   -1.0900    4.1100    0.0000 C   0  0
   -2.4000    4.8600    0.0000 C   0  0
   -2.4025    6.3600    0.0000 O   0  0
   -3.7000    4.1100    0.0000 C   0  0
   -4.9968    4.8654    0.0000 N   0  0
   -4.9919    6.3662    0.0000 C   0  0
   -6.2887    7.1217    0.0000 C   0  0
   -6.2860    8.6217    0.0000 C   0  0
   -7.5837    9.3741    0.0000 C   0  0
   -8.8841    8.6266    0.0000 C   0  0
   -8.8869    7.1266    0.0000 C   0  0
  -10.1873    6.3790    0.0000 N   0  0
   -7.5892    6.3741    0.0000 C   0  0
   -3.7000    2.6000    0.0000 C   0  0
   -5.0100    1.8400    0.0000 C   0  0
   -5.0100    0.3400    0.0000 C   0  0  1  0  0  0
   -6.3055   -0.4161    0.0000 C   0  0
   -3.7000   -0.4000    0.0000 C   0  0
   -3.2700   -2.0600    0.0000 C   0  0  2  0  0  0
   -4.1920   -3.2317    0.0000 O   0  0
   -5.6765   -3.0162    0.0000 C   0  0
   -1.0900   -1.9100    0.0000 C   0  0  2  0  0  0
   -0.7453   -0.4501    0.0000 O   0  0
    0.2000   -2.6700    0.0000 C   0  0  1  0  0  0
    0.1950   -4.1700    0.0000 C   0  0
    1.5100   -1.9100    0.0000 C   0  0
    2.8100   -2.6700    0.0000 C   0  0
    2.8075   -4.1700    0.0000 C   0  0
    4.1200   -1.9100    0.0000 C   0  0  2  0  0  0
    5.4195   -2.6606    0.0000 O   0  0
    5.4202   -4.1615    0.0000 C   0  0
    4.1213   -4.9116    0.0000 N   0  0
    6.7191   -4.9117    0.0000 O   0  0
   -2.4000    1.8400    0.0000 C   0  0
   -2.4025    0.3400    0.0000 O   0  0
  1  2  1  0
  3  2  1  1
  3  4  1  0
  4  5  2  0
  5  6  1  0
  6  7  2  0
  7  8  1  0
  7  9  1  0
  9 10  2  0
  9 11  1  0
 11 12  1  0
 12 13  2  0
 13 14  1  0
 14 15  2  0
 14 16  1  0
 16 17  1  0
 17 18  1  0
 18 19  1  0
 19 20  2  0
 20 21  1  0
 21 22  2  0
 22 23  1  0
 23 24  1  0
 23 25  2  0
 25 19  1  0
 16 26  2  0
 26 27  1  0
 27 28  1  0
 28 29  1  6
 28 30  1  0
 30 31  1  0
 31 32  1  1
 32 33  1  0
 31 34  1  0
 34 35  1  6
 34 36  1  0
 36 37  1  6
 36 38  1  0
 38 39  2  0
 39 40  1  0
 39 41  1  0
 41  3  1  0
 41 42  1  1
 42 43  1  0
 43 44  1  0
 43 45  2  0
 26 46  1  0
 46 12  1  0
 46 47  2  0
M  END
> <assay_chembl_id>
CHEMBL3364915

> <assay_description>
Cytotoxicity against human LNCAP cells after 72 hrs by MTT assay

> <document_journal>
Eur J Med Chem

> <molecule_chembl_id>
CHEMBL3327117

> <standard_value>
180

> <IC50_uM>
0.18

> <Activity>
Yes

> <Canonical_Smiles>
CO[C@H]1/C=C\C=C(/C)C(=O)NC2=CC(=O)C(NCc3cccc(N)c3)=C(C[C@@H](C)C[C@H](OC)[C@H](O)[C@@H](C)/C=C(\C)[C@@H]1OC(N)=O)C2=O

$$$$

  SciTegic03142313312D

 49 51  0  0  1  0            999 V2000
   -6.2763   11.6207    0.0000 C   0  0
   -7.5778   10.8750    0.0000 O   0  0
   -7.5837    9.3741    0.0000 C   0  0
   -6.2860    8.6217    0.0000 C   0  0
   -6.2887    7.1217    0.0000 C   0  0
   -4.9919    6.3662    0.0000 C   0  0
   -4.9968    4.8654    0.0000 N   0  0
   -3.7000    4.1100    0.0000 C   0  0
   -3.7000    2.6000    0.0000 C   0  0
   -5.0100    1.8400    0.0000 C   0  0
   -5.0100    0.3400    0.0000 C   0  0  1  0  0  0
   -6.3055   -0.4161    0.0000 C   0  0
   -3.7000   -0.4000    0.0000 C   0  0
   -3.2700   -2.0600    0.0000 C   0  0  2  0  0  0
   -4.1920   -3.2317    0.0000 O   0  0
   -5.6765   -3.0162    0.0000 C   0  0
   -1.0900   -1.9100    0.0000 C   0  0  2  0  0  0
   -0.7453   -0.4501    0.0000 O   0  0
    0.2000   -2.6700    0.0000 C   0  0  1  0  0  0
    0.1950   -4.1700    0.0000 C   0  0
    1.5100   -1.9100    0.0000 C   0  0
    2.8100   -2.6700    0.0000 C   0  0
    2.8075   -4.1700    0.0000 C   0  0
    4.1200   -1.9100    0.0000 C   0  0  2  0  0  0
    5.4195   -2.6606    0.0000 O   0  0
    5.4202   -4.1615    0.0000 C   0  0
    4.1213   -4.9116    0.0000 N   0  0
    6.7191   -4.9117    0.0000 O   0  0
    4.1200   -0.4000    0.0000 C   0  0  1  0  0  0
    2.6430   -0.1342    0.0000 O   0  0
    1.6740   -1.2792    0.0000 C   0  0
    5.4200    0.3400    0.0000 C   0  0
    5.4200    1.8400    0.0000 C   0  0
    4.1200    2.6000    0.0000 C   0  0
    2.8100    1.8400    0.0000 C   0  0
    2.8075    0.3400    0.0000 C   0  0
    1.5100    2.6000    0.0000 C   0  0
    1.5125    4.1000    0.0000 O   0  0
    0.2000    1.8400    0.0000 N   0  0
   -1.0900    2.6000    0.0000 C   0  0
   -1.0900    4.1100    0.0000 C   0  0
   -2.4000    4.8600    0.0000 C   0  0
   -2.4025    6.3600    0.0000 O   0  0
   -2.4000    1.8400    0.0000 C   0  0
   -2.4025    0.3400    0.0000 O   0  0
   -7.5892    6.3741    0.0000 C   0  0
   -8.8869    7.1266    0.0000 C   0  0
   -8.8841    8.6266    0.0000 C   0  0
  -10.1817    9.3790    0.0000 O   0  0
  1  2  1  0
  2  3  1  0
  3  4  2  0
  4  5  1  0
  5  6  1  0
  6  7  1  0
  7  8  1  0
  8  9  2  0
  9 10  1  0
 10 11  1  0
 11 12  1  6
 11 13  1  0
 13 14  1  0
 14 15  1  1
 15 16  1  0
 14 17  1  0
 17 18  1  6
 17 19  1  0
 19 20  1  6
 19 21  1  0
 21 22  2  0
 22 23  1  0
 22 24  1  0
 24 25  1  1
 25 26  1  0
 26 27  1  0
 26 28  2  0
 24 29  1  0
 29 30  1  1
 30 31  1  0
 29 32  1  0
 32 33  2  0
 33 34  1  0
 34 35  2  0
 35 36  1  0
 35 37  1  0
 37 38  2  0
 37 39  1  0
 39 40  1  0
 40 41  2  0
 41 42  1  0
 42  8  1  0
 42 43  2  0
 40 44  1  0
 44  9  1  0
 44 45  2  0
  5 46  2  0
 46 47  1  0
 47 48  2  0
 48  3  1  0
 48 49  1  0
M  END
> <assay_chembl_id>
CHEMBL3364915

> <assay_description>
Cytotoxicity against human LNCAP cells after 72 hrs by MTT assay

> <document_journal>
Eur J Med Chem

> <molecule_chembl_id>
CHEMBL3327112

> <standard_value>
140

> <IC50_uM>
0.14

> <Activity>
Yes

> <Canonical_Smiles>
COc1cc(CNC2=C3C[C@@H](C)C[C@H](OC)[C@H](O)[C@@H](C)/C=C(\C)[C@H](OC(N)=O)[C@@H](OC)/C=C\C=C(/C)C(=O)NC(=CC2=O)C3=O)ccc1O

$$$$

  SciTegic03142313312D

 47 49  0  0  1  0            999 V2000
    1.5209   -0.3790    0.0000 C   0  0
    2.8261    0.3603    0.0000 O   0  0
    4.1200   -0.4000    0.0000 C   0  0  1  0  0  0
    5.4200    0.3400    0.0000 C   0  0
    5.4200    1.8400    0.0000 C   0  0
    4.1200    2.6000    0.0000 C   0  0
    2.8100    1.8400    0.0000 C   0  0
    2.8075    0.3400    0.0000 C   0  0
    1.5100    2.6000    0.0000 C   0  0
    1.5125    4.1000    0.0000 O   0  0
    0.2000    1.8400    0.0000 N   0  0
   -1.0900    2.6000    0.0000 C   0  0
   -1.0900    4.1100    0.0000 C   0  0
   -2.4000    4.8600    0.0000 C   0  0
   -2.4025    6.3600    0.0000 O   0  0
   -3.7000    4.1100    0.0000 C   0  0
   -4.9968    4.8654    0.0000 N   0  0
   -4.9919    6.3662    0.0000 C   0  0
   -6.2887    7.1217    0.0000 C   0  0
   -6.2860    8.6217    0.0000 C   0  0
   -7.5837    9.3741    0.0000 C   0  0
   -8.8841    8.6266    0.0000 C   0  0
  -10.1817    9.3790    0.0000 Cl  0  0
   -8.8869    7.1266    0.0000 C   0  0
   -7.5892    6.3741    0.0000 C   0  0
   -3.7000    2.6000    0.0000 C   0  0
   -5.0100    1.8400    0.0000 C   0  0
   -5.0100    0.3400    0.0000 C   0  0  1  0  0  0
   -6.3055   -0.4161    0.0000 C   0  0
   -3.7000   -0.4000    0.0000 C   0  0
   -3.2700   -2.0600    0.0000 C   0  0  2  0  0  0
   -4.1920   -3.2317    0.0000 O   0  0
   -5.6765   -3.0162    0.0000 C   0  0
   -1.0900   -1.9100    0.0000 C   0  0  2  0  0  0
   -0.7453   -0.4501    0.0000 O   0  0
    0.2000   -2.6700    0.0000 C   0  0  1  0  0  0
    0.1950   -4.1700    0.0000 C   0  0
    1.5100   -1.9100    0.0000 C   0  0
    2.8100   -2.6700    0.0000 C   0  0
    2.8075   -4.1700    0.0000 C   0  0
    4.1200   -1.9100    0.0000 C   0  0  2  0  0  0
    5.4195   -2.6606    0.0000 O   0  0
    5.4202   -4.1615    0.0000 C   0  0
    4.1213   -4.9116    0.0000 N   0  0
    6.7191   -4.9117    0.0000 O   0  0
   -2.4000    1.8400    0.0000 C   0  0
   -2.4025    0.3400    0.0000 O   0  0
  1  2  1  0
  3  2  1  1
  3  4  1  0
  4  5  2  0
  5  6  1  0
  6  7  2  0
  7  8  1  0
  7  9  1  0
  9 10  2  0
  9 11  1  0
 11 12  1  0
 12 13  2  0
 13 14  1  0
 14 15  2  0
 14 16  1  0
 16 17  1  0
 17 18  1  0
 18 19  1  0
 19 20  2  0
 20 21  1  0
 21 22  2  0
 22 23  1  0
 22 24  1  0
 24 25  2  0
 25 19  1  0
 16 26  2  0
 26 27  1  0
 27 28  1  0
 28 29  1  6
 28 30  1  0
 30 31  1  0
 31 32  1  1
 32 33  1  0
 31 34  1  0
 34 35  1  6
 34 36  1  0
 36 37  1  6
 36 38  1  0
 38 39  2  0
 39 40  1  0
 39 41  1  0
 41  3  1  0
 41 42  1  1
 42 43  1  0
 43 44  1  0
 43 45  2  0
 26 46  1  0
 46 12  1  0
 46 47  2  0
M  END
> <assay_chembl_id>
CHEMBL3364915

> <assay_description>
Cytotoxicity against human LNCAP cells after 72 hrs by MTT assay

> <document_journal>
Eur J Med Chem

> <molecule_chembl_id>
CHEMBL3327100

> <standard_value>
770

> <IC50_uM>
0.77

> <Activity>
Yes

> <Canonical_Smiles>
CO[C@H]1/C=C\C=C(/C)C(=O)NC2=CC(=O)C(NCc3ccc(Cl)cc3)=C(C[C@@H](C)C[C@H](OC)[C@H](O)[C@@H](C)/C=C(\C)[C@@H]1OC(N)=O)C2=O

$$$$

  SciTegic03142313312D

 47 49  0  0  1  0            999 V2000
    1.5209   -0.3790    0.0000 C   0  0
    2.8261    0.3603    0.0000 O   0  0
    4.1200   -0.4000    0.0000 C   0  0  1  0  0  0
    5.4200    0.3400    0.0000 C   0  0
    5.4200    1.8400    0.0000 C   0  0
    4.1200    2.6000    0.0000 C   0  0
    2.8100    1.8400    0.0000 C   0  0
    2.8075    0.3400    0.0000 C   0  0
    1.5100    2.6000    0.0000 C   0  0
    1.5125    4.1000    0.0000 O   0  0
    0.2000    1.8400    0.0000 N   0  0
   -1.0900    2.6000    0.0000 C   0  0
   -1.0900    4.1100    0.0000 C   0  0
   -2.4000    4.8600    0.0000 C   0  0
   -2.4025    6.3600    0.0000 O   0  0
   -3.7000    4.1100    0.0000 C   0  0
   -4.9968    4.8654    0.0000 N   0  0
   -4.9919    6.3662    0.0000 C   0  0
   -6.2887    7.1217    0.0000 C   0  0
   -7.5893    6.3741    0.0000 C   0  0
   -8.8869    7.1266    0.0000 C   0  0
   -8.8841    8.6266    0.0000 C   0  0
   -7.5836    9.3741    0.0000 C   0  0
   -6.2860    8.6217    0.0000 C   0  0
   -4.9856    9.3693    0.0000 Cl  0  0
   -3.7000    2.6000    0.0000 C   0  0
   -5.0100    1.8400    0.0000 C   0  0
   -5.0100    0.3400    0.0000 C   0  0  1  0  0  0
   -6.3055   -0.4161    0.0000 C   0  0
   -3.7000   -0.4000    0.0000 C   0  0
   -3.2700   -2.0600    0.0000 C   0  0  2  0  0  0
   -4.1920   -3.2317    0.0000 O   0  0
   -5.6765   -3.0162    0.0000 C   0  0
   -1.0900   -1.9100    0.0000 C   0  0  2  0  0  0
   -0.7453   -0.4501    0.0000 O   0  0
    0.2000   -2.6700    0.0000 C   0  0  1  0  0  0
    0.1950   -4.1700    0.0000 C   0  0
    1.5100   -1.9100    0.0000 C   0  0
    2.8100   -2.6700    0.0000 C   0  0
    2.8075   -4.1700    0.0000 C   0  0
    4.1200   -1.9100    0.0000 C   0  0  2  0  0  0
    5.4195   -2.6606    0.0000 O   0  0
    5.4202   -4.1615    0.0000 C   0  0
    4.1213   -4.9116    0.0000 N   0  0
    6.7191   -4.9117    0.0000 O   0  0
   -2.4000    1.8400    0.0000 C   0  0
   -2.4025    0.3400    0.0000 O   0  0
  1  2  1  0
  3  2  1  1
  3  4  1  0
  4  5  2  0
  5  6  1  0
  6  7  2  0
  7  8  1  0
  7  9  1  0
  9 10  2  0
  9 11  1  0
 11 12  1  0
 12 13  2  0
 13 14  1  0
 14 15  2  0
 14 16  1  0
 16 17  1  0
 17 18  1  0
 18 19  1  0
 19 20  2  0
 20 21  1  0
 21 22  2  0
 22 23  1  0
 23 24  2  0
 24 19  1  0
 24 25  1  0
 16 26  2  0
 26 27  1  0
 27 28  1  0
 28 29  1  6
 28 30  1  0
 30 31  1  0
 31 32  1  1
 32 33  1  0
 31 34  1  0
 34 35  1  6
 34 36  1  0
 36 37  1  6
 36 38  1  0
 38 39  2  0
 39 40  1  0
 39 41  1  0
 41  3  1  0
 41 42  1  1
 42 43  1  0
 43 44  1  0
 43 45  2  0
 26 46  1  0
 46 12  1  0
 46 47  2  0
M  END
> <assay_chembl_id>
CHEMBL3364915

> <assay_description>
Cytotoxicity against human LNCAP cells after 72 hrs by MTT assay

> <document_journal>
Eur J Med Chem

> <molecule_chembl_id>
CHEMBL3327098

> <standard_value>
410

> <IC50_uM>
0.41

> <Activity>
Yes

> <Canonical_Smiles>
CO[C@H]1/C=C\C=C(/C)C(=O)NC2=CC(=O)C(NCc3ccccc3Cl)=C(C[C@@H](C)C[C@H](OC)[C@H](O)[C@@H](C)/C=C(\C)[C@@H]1OC(N)=O)C2=O

$$$$

  SciTegic03142313312D

 50 52  0  0  1  0            999 V2000
    1.5209   -0.3790    0.0000 C   0  0
    2.8261    0.3603    0.0000 O   0  0
    4.1200   -0.4000    0.0000 C   0  0  1  0  0  0
    5.4200    0.3400    0.0000 C   0  0
    5.4200    1.8400    0.0000 C   0  0
    4.1200    2.6000    0.0000 C   0  0
    2.8100    1.8400    0.0000 C   0  0
    2.8075    0.3400    0.0000 C   0  0
    1.5100    2.6000    0.0000 C   0  0
    1.5125    4.1000    0.0000 O   0  0
    0.2000    1.8400    0.0000 N   0  0
   -1.0900    2.6000    0.0000 C   0  0
   -1.0900    4.1100    0.0000 C   0  0
   -2.4000    4.8600    0.0000 C   0  0
   -2.4025    6.3600    0.0000 O   0  0
   -3.7000    4.1100    0.0000 C   0  0
   -4.9968    4.8654    0.0000 N   0  0
   -4.9919    6.3662    0.0000 C   0  0
   -6.2887    7.1217    0.0000 C   0  0
   -6.2860    8.6217    0.0000 C   0  0
   -7.5837    9.3741    0.0000 C   0  0
   -8.8841    8.6266    0.0000 C   0  0
  -10.1824    9.3794    0.0000 S   0  0
  -11.4826    8.6314    0.0000 N   0  0
  -10.1806   10.8794    0.0000 O   0  0
  -11.4804   10.1312    0.0000 O   0  0
   -8.8869    7.1266    0.0000 C   0  0
   -7.5892    6.3741    0.0000 C   0  0
   -3.7000    2.6000    0.0000 C   0  0
   -5.0100    1.8400    0.0000 C   0  0
   -5.0100    0.3400    0.0000 C   0  0  1  0  0  0
   -6.3055   -0.4161    0.0000 C   0  0
   -3.7000   -0.4000    0.0000 C   0  0
   -3.2700   -2.0600    0.0000 C   0  0  2  0  0  0
   -4.1920   -3.2317    0.0000 O   0  0
   -5.6765   -3.0162    0.0000 C   0  0
   -1.0900   -1.9100    0.0000 C   0  0  2  0  0  0
   -0.7453   -0.4501    0.0000 O   0  0
    0.2000   -2.6700    0.0000 C   0  0  1  0  0  0
    0.1950   -4.1700    0.0000 C   0  0
    1.5100   -1.9100    0.0000 C   0  0
    2.8100   -2.6700    0.0000 C   0  0
    2.8075   -4.1700    0.0000 C   0  0
    4.1200   -1.9100    0.0000 C   0  0  2  0  0  0
    5.4195   -2.6606    0.0000 O   0  0
    5.4202   -4.1615    0.0000 C   0  0
    4.1213   -4.9116    0.0000 N   0  0
    6.7191   -4.9117    0.0000 O   0  0
   -2.4000    1.8400    0.0000 C   0  0
   -2.4025    0.3400    0.0000 O   0  0
  1  2  1  0
  3  2  1  1
  3  4  1  0
  4  5  2  0
  5  6  1  0
  6  7  2  0
  7  8  1  0
  7  9  1  0
  9 10  2  0
  9 11  1  0
 11 12  1  0
 12 13  2  0
 13 14  1  0
 14 15  2  0
 14 16  1  0
 16 17  1  0
 17 18  1  0
 18 19  1  0
 19 20  2  0
 20 21  1  0
 21 22  2  0
 22 23  1  0
 23 24  1  0
 23 25  2  0
 23 26  2  0
 22 27  1  0
 27 28  2  0
 28 19  1  0
 16 29  2  0
 29 30  1  0
 30 31  1  0
 31 32  1  6
 31 33  1  0
 33 34  1  0
 34 35  1  1
 35 36  1  0
 34 37  1  0
 37 38  1  6
 37 39  1  0
 39 40  1  6
 39 41  1  0
 41 42  2  0
 42 43  1  0
 42 44  1  0
 44  3  1  0
 44 45  1  1
 45 46  1  0
 46 47  1  0
 46 48  2  0
 29 49  1  0
 49 12  1  0
 49 50  2  0
M  END
> <assay_chembl_id>
CHEMBL3364915

> <assay_description>
Cytotoxicity against human LNCAP cells after 72 hrs by MTT assay

> <document_journal>
Eur J Med Chem

> <molecule_chembl_id>
CHEMBL3327122

> <standard_value>
960

> <IC50_uM>
0.96

> <Activity>
Yes

> <Canonical_Smiles>
CO[C@H]1/C=C\C=C(/C)C(=O)NC2=CC(=O)C(NCc3ccc(S(N)(=O)=O)cc3)=C(C[C@@H](C)C[C@H](OC)[C@H](O)[C@@H](C)/C=C(\C)[C@@H]1OC(N)=O)C2=O

$$$$

  SciTegic03142313312D

 51 53  0  0  1  0            999 V2000
    1.5209   -0.3790    0.0000 C   0  0
    2.8261    0.3603    0.0000 O   0  0
    4.1200   -0.4000    0.0000 C   0  0  1  0  0  0
    5.4200    0.3400    0.0000 C   0  0
    5.4200    1.8400    0.0000 C   0  0
    4.1200    2.6000    0.0000 C   0  0
    2.8100    1.8400    0.0000 C   0  0
    2.8075    0.3400    0.0000 C   0  0
    1.5100    2.6000    0.0000 C   0  0
    1.5125    4.1000    0.0000 O   0  0
    0.2000    1.8400    0.0000 N   0  0
   -1.0900    2.6000    0.0000 C   0  0
   -1.0900    4.1100    0.0000 C   0  0
   -2.4000    4.8600    0.0000 C   0  0
   -2.4025    6.3600    0.0000 O   0  0
   -3.7000    4.1100    0.0000 C   0  0
   -4.9968    4.8654    0.0000 N   0  0
   -4.9919    6.3662    0.0000 C   0  0
   -6.2887    7.1217    0.0000 C   0  0
   -6.2860    8.6217    0.0000 C   0  0
   -7.5837    9.3741    0.0000 C   0  0
   -8.8841    8.6266    0.0000 C   0  0
  -10.1840    9.3767    0.0000 O   0  0
  -11.4841    8.6269    0.0000 C   0  0
  -12.7833    9.3766    0.0000 F   0  0
  -11.4843    7.1269    0.0000 F   0  0
  -12.7831    7.8768    0.0000 F   0  0
   -8.8869    7.1266    0.0000 C   0  0
   -7.5892    6.3741    0.0000 C   0  0
   -3.7000    2.6000    0.0000 C   0  0
   -5.0100    1.8400    0.0000 C   0  0
   -5.0100    0.3400    0.0000 C   0  0  1  0  0  0
   -6.3055   -0.4161    0.0000 C   0  0
   -3.7000   -0.4000    0.0000 C   0  0
   -3.2700   -2.0600    0.0000 C   0  0  2  0  0  0
   -4.1920   -3.2317    0.0000 O   0  0
   -5.6765   -3.0162    0.0000 C   0  0
   -1.0900   -1.9100    0.0000 C   0  0  2  0  0  0
   -0.7453   -0.4501    0.0000 O   0  0
    0.2000   -2.6700    0.0000 C   0  0  1  0  0  0
    0.1950   -4.1700    0.0000 C   0  0
    1.5100   -1.9100    0.0000 C   0  0
    2.8100   -2.6700    0.0000 C   0  0
    2.8075   -4.1700    0.0000 C   0  0
    4.1200   -1.9100    0.0000 C   0  0  2  0  0  0
    5.4195   -2.6606    0.0000 O   0  0
    5.4202   -4.1615    0.0000 C   0  0
    4.1213   -4.9116    0.0000 N   0  0
    6.7191   -4.9117    0.0000 O   0  0
   -2.4000    1.8400    0.0000 C   0  0
   -2.4025    0.3400    0.0000 O   0  0
  1  2  1  0
  3  2  1  1
  3  4  1  0
  4  5  2  0
  5  6  1  0
  6  7  2  0
  7  8  1  0
  7  9  1  0
  9 10  2  0
  9 11  1  0
 11 12  1  0
 12 13  2  0
 13 14  1  0
 14 15  2  0
 14 16  1  0
 16 17  1  0
 17 18  1  0
 18 19  1  0
 19 20  2  0
 20 21  1  0
 21 22  2  0
 22 23  1  0
 23 24  1  0
 24 25  1  0
 24 26  1  0
 24 27  1  0
 22 28  1  0
 28 29  2  0
 29 19  1  0
 16 30  2  0
 30 31  1  0
 31 32  1  0
 32 33  1  6
 32 34  1  0
 34 35  1  0
 35 36  1  1
 36 37  1  0
 35 38  1  0
 38 39  1  6
 38 40  1  0
 40 41  1  6
 40 42  1  0
 42 43  2  0
 43 44  1  0
 43 45  1  0
 45  3  1  0
 45 46  1  1
 46 47  1  0
 47 48  1  0
 47 49  2  0
 30 50  1  0
 50 12  1  0
 50 51  2  0
M  END
> <assay_chembl_id>
CHEMBL3364915

> <assay_description>
Cytotoxicity against human LNCAP cells after 72 hrs by MTT assay

> <document_journal>
Eur J Med Chem

> <molecule_chembl_id>
CHEMBL3327125

> <standard_value>
570

> <IC50_uM>
0.57

> <Activity>
Yes

> <Canonical_Smiles>
CO[C@H]1/C=C\C=C(/C)C(=O)NC2=CC(=O)C(NCc3ccc(OC(F)(F)F)cc3)=C(C[C@@H](C)C[C@H](OC)[C@H](O)[C@@H](C)/C=C(\C)[C@@H]1OC(N)=O)C2=O

$$$$

  SciTegic03142313312D

 49 51  0  0  1  0            999 V2000
    1.5209   -0.3790    0.0000 C   0  0
    2.8261    0.3603    0.0000 O   0  0
    4.1200   -0.4000    0.0000 C   0  0  1  0  0  0
    5.4200    0.3400    0.0000 C   0  0
    5.4200    1.8400    0.0000 C   0  0
    4.1200    2.6000    0.0000 C   0  0
    2.8100    1.8400    0.0000 C   0  0
    2.8075    0.3400    0.0000 C   0  0
    1.5100    2.6000    0.0000 C   0  0
    1.5125    4.1000    0.0000 O   0  0
    0.2000    1.8400    0.0000 N   0  0
   -1.0900    2.6000    0.0000 C   0  0
   -1.0900    4.1100    0.0000 C   0  0
   -2.4000    4.8600    0.0000 C   0  0
   -2.4025    6.3600    0.0000 O   0  0
   -3.7000    4.1100    0.0000 C   0  0
   -4.9968    4.8654    0.0000 N   0  0
   -4.9919    6.3662    0.0000 C   0  0
   -6.2887    7.1217    0.0000 C   0  0
   -6.2860    8.6217    0.0000 C   0  0
   -7.5837    9.3741    0.0000 C   0  0
   -8.8841    8.6266    0.0000 C   0  0
   -8.8869    7.1266    0.0000 C   0  0
  -10.1865    6.3759    0.0000 N   0  3
  -10.1872    4.8759    0.0000 O   0  0
  -11.4854    7.1261    0.0000 O   0  5
   -7.5892    6.3741    0.0000 C   0  0
   -3.7000    2.6000    0.0000 C   0  0
   -5.0100    1.8400    0.0000 C   0  0
   -5.0100    0.3400    0.0000 C   0  0  1  0  0  0
   -6.3055   -0.4161    0.0000 C   0  0
   -3.7000   -0.4000    0.0000 C   0  0
   -3.2700   -2.0600    0.0000 C   0  0  2  0  0  0
   -4.1920   -3.2317    0.0000 O   0  0
   -5.6765   -3.0162    0.0000 C   0  0
   -1.0900   -1.9100    0.0000 C   0  0  2  0  0  0
   -0.7453   -0.4501    0.0000 O   0  0
    0.2000   -2.6700    0.0000 C   0  0  1  0  0  0
    0.1950   -4.1700    0.0000 C   0  0
    1.5100   -1.9100    0.0000 C   0  0
    2.8100   -2.6700    0.0000 C   0  0
    2.8075   -4.1700    0.0000 C   0  0
    4.1200   -1.9100    0.0000 C   0  0  2  0  0  0
    5.4195   -2.6606    0.0000 O   0  0
    5.4202   -4.1615    0.0000 C   0  0
    4.1213   -4.9116    0.0000 N   0  0
    6.7191   -4.9117    0.0000 O   0  0
   -2.4000    1.8400    0.0000 C   0  0
   -2.4025    0.3400    0.0000 O   0  0
  1  2  1  0
  3  2  1  1
  3  4  1  0
  4  5  2  0
  5  6  1  0
  6  7  2  0
  7  8  1  0
  7  9  1  0
  9 10  2  0
  9 11  1  0
 11 12  1  0
 12 13  2  0
 13 14  1  0
 14 15  2  0
 14 16  1  0
 16 17  1  0
 17 18  1  0
 18 19  1  0
 19 20  2  0
 20 21  1  0
 21 22  2  0
 22 23  1  0
 23 24  1  0
 24 25  2  0
 24 26  1  0
 23 27  2  0
 27 19  1  0
 16 28  2  0
 28 29  1  0
 29 30  1  0
 30 31  1  6
 30 32  1  0
 32 33  1  0
 33 34  1  1
 34 35  1  0
 33 36  1  0
 36 37  1  6
 36 38  1  0
 38 39  1  6
 38 40  1  0
 40 41  2  0
 41 42  1  0
 41 43  1  0
 43  3  1  0
 43 44  1  1
 44 45  1  0
 45 46  1  0
 45 47  2  0
 28 48  1  0
 48 12  1  0
 48 49  2  0
M  CHG  2  24   1  26  -1
M  END
> <assay_chembl_id>
CHEMBL3364915

> <assay_description>
Cytotoxicity against human LNCAP cells after 72 hrs by MTT assay

> <document_journal>
Eur J Med Chem

> <molecule_chembl_id>
CHEMBL3327126

> <standard_value>
340

> <IC50_uM>
0.34

> <Activity>
Yes

> <Canonical_Smiles>
CO[C@H]1/C=C\C=C(/C)C(=O)NC2=CC(=O)C(NCc3cccc([N+](=O)[O-])c3)=C(C[C@@H](C)C[C@H](OC)[C@H](O)[C@@H](C)/C=C(\C)[C@@H]1OC(N)=O)C2=O

$$$$

  SciTegic03142313312D

 40 41  0  0  1  0            999 V2000
   -4.9919    6.3654    0.0000 C   0  0
   -4.9968    4.8654    0.0000 O   0  0
   -3.7000    4.1100    0.0000 C   0  0
   -3.7000    2.6000    0.0000 C   0  0
   -5.0100    1.8400    0.0000 C   0  0
   -5.0100    0.3400    0.0000 C   0  0  1  0  0  0
   -6.3055   -0.4161    0.0000 C   0  0
   -3.7000   -0.4000    0.0000 C   0  0
   -3.2700   -2.0600    0.0000 C   0  0  2  0  0  0
   -4.1920   -3.2317    0.0000 O   0  0
   -5.6765   -3.0162    0.0000 C   0  0
   -1.0900   -1.9100    0.0000 C   0  0  2  0  0  0
   -0.7453   -0.4501    0.0000 O   0  0
    0.2000   -2.6700    0.0000 C   0  0  1  0  0  0
    0.1950   -4.1700    0.0000 C   0  0
    1.5100   -1.9100    0.0000 C   0  0
    2.8100   -2.6700    0.0000 C   0  0
    2.8075   -4.1700    0.0000 C   0  0
    4.1200   -1.9100    0.0000 C   0  0  2  0  0  0
    5.4195   -2.6606    0.0000 O   0  0
    5.4202   -4.1615    0.0000 C   0  0
    4.1213   -4.9116    0.0000 N   0  0
    6.7191   -4.9117    0.0000 O   0  0
    4.1200   -0.4000    0.0000 C   0  0  1  0  0  0
    2.6430   -0.1342    0.0000 O   0  0
    1.6740   -1.2792    0.0000 C   0  0
    5.4200    0.3400    0.0000 C   0  0
    5.4200    1.8400    0.0000 C   0  0
    4.1200    2.6000    0.0000 C   0  0
    2.8100    1.8400    0.0000 C   0  0
    2.8075    0.3400    0.0000 C   0  0
    1.5100    2.6000    0.0000 C   0  0
    1.5125    4.1000    0.0000 O   0  0
    0.2000    1.8400    0.0000 N   0  0
   -1.0900    2.6000    0.0000 C   0  0
   -1.0900    4.1100    0.0000 C   0  0
   -2.4000    4.8600    0.0000 C   0  0
   -2.4025    6.3600    0.0000 O   0  0
   -2.4000    1.8400    0.0000 C   0  0
   -2.4025    0.3400    0.0000 O   0  0
  1  2  1  0
  2  3  1  0
  3  4  2  0
  4  5  1  0
  5  6  1  0
  6  7  1  6
  6  8  1  0
  8  9  1  0
  9 10  1  1
 10 11  1  0
  9 12  1  0
 12 13  1  6
 12 14  1  0
 14 15  1  6
 14 16  1  0
 16 17  2  0
 17 18  1  0
 17 19  1  0
 19 20  1  1
 20 21  1  0
 21 22  1  0
 21 23  2  0
 19 24  1  0
 24 25  1  1
 25 26  1  0
 24 27  1  0
 27 28  2  0
 28 29  1  0
 29 30  2  0
 30 31  1  0
 30 32  1  0
 32 33  2  0
 32 34  1  0
 34 35  1  0
 35 36  2  0
 36 37  1  0
 37  3  1  0
 37 38  2  0
 35 39  1  0
 39  4  1  0
 39 40  2  0
M  END
> <assay_chembl_id>
CHEMBL3364915

> <assay_description>
Cytotoxicity against human LNCAP cells after 72 hrs by MTT assay

> <document_journal>
Eur J Med Chem

> <molecule_chembl_id>
CHEMBL278315

> <standard_value>
430

> <IC50_uM>
0.43

> <Activity>
Yes

> <Canonical_Smiles>
COC1=C2C[C@@H](C)C[C@H](OC)[C@H](O)[C@@H](C)/C=C(\C)[C@H](OC(N)=O)[C@@H](OC)/C=C\C=C(/C)C(=O)NC(=CC1=O)C2=O

$$$$

  SciTegic03142313312D

 45 47  0  0  1  0            999 V2000
    1.5209   -0.3790    0.0000 C   0  0
    2.8261    0.3603    0.0000 O   0  0
    4.1200   -0.4000    0.0000 C   0  0  1  0  0  0
    5.4200    0.3400    0.0000 C   0  0
    5.4200    1.8400    0.0000 C   0  0
    4.1200    2.6000    0.0000 C   0  0
    2.8100    1.8400    0.0000 C   0  0
    2.8075    0.3400    0.0000 C   0  0
    1.5100    2.6000    0.0000 C   0  0
    1.5125    4.1000    0.0000 O   0  0
    0.2000    1.8400    0.0000 N   0  0
   -1.0900    2.6000    0.0000 C   0  0
   -1.0900    4.1100    0.0000 C   0  0
   -2.4000    4.8600    0.0000 C   0  0
   -2.4025    6.3600    0.0000 O   0  0
   -3.7000    4.1100    0.0000 C   0  0
   -4.9968    4.8654    0.0000 N   0  0
   -4.9919    6.3662    0.0000 C   0  0
   -6.2887    7.1217    0.0000 C   0  0
   -6.4239    8.6028    0.0000 C   0  0
   -7.8905    8.9174    0.0000 C   0  0
   -8.6429    7.6197    0.0000 S   0  0
   -7.6413    6.5031    0.0000 C   0  0
   -3.7000    2.6000    0.0000 C   0  0
   -5.0100    1.8400    0.0000 C   0  0
   -5.0100    0.3400    0.0000 C   0  0  1  0  0  0
   -6.3055   -0.4161    0.0000 C   0  0
   -3.7000   -0.4000    0.0000 C   0  0
   -3.2700   -2.0600    0.0000 C   0  0  2  0  0  0
   -4.1920   -3.2317    0.0000 O   0  0
   -5.6765   -3.0162    0.0000 C   0  0
   -1.0900   -1.9100    0.0000 C   0  0  2  0  0  0
   -0.7453   -0.4501    0.0000 O   0  0
    0.2000   -2.6700    0.0000 C   0  0  1  0  0  0
    0.1950   -4.1700    0.0000 C   0  0
    1.5100   -1.9100    0.0000 C   0  0
    2.8100   -2.6700    0.0000 C   0  0
    2.8075   -4.1700    0.0000 C   0  0
    4.1200   -1.9100    0.0000 C   0  0  2  0  0  0
    5.4195   -2.6606    0.0000 O   0  0
    5.4202   -4.1615    0.0000 C   0  0
    4.1213   -4.9116    0.0000 N   0  0
    6.7191   -4.9117    0.0000 O   0  0
   -2.4000    1.8400    0.0000 C   0  0
   -2.4025    0.3400    0.0000 O   0  0
  1  2  1  0
  3  2  1  1
  3  4  1  0
  4  5  2  0
  5  6  1  0
  6  7  2  0
  7  8  1  0
  7  9  1  0
  9 10  2  0
  9 11  1  0
 11 12  1  0
 12 13  2  0
 13 14  1  0
 14 15  2  0
 14 16  1  0
 16 17  1  0
 17 18  1  0
 18 19  1  0
 19 20  1  0
 20 21  2  0
 21 22  1  0
 22 23  1  0
 23 19  2  0
 16 24  2  0
 24 25  1  0
 25 26  1  0
 26 27  1  6
 26 28  1  0
 28 29  1  0
 29 30  1  1
 30 31  1  0
 29 32  1  0
 32 33  1  6
 32 34  1  0
 34 35  1  6
 34 36  1  0
 36 37  2  0
 37 38  1  0
 37 39  1  0
 39  3  1  0
 39 40  1  1
 40 41  1  0
 41 42  1  0
 41 43  2  0
 24 44  1  0
 44 12  1  0
 44 45  2  0
M  END
> <assay_chembl_id>
CHEMBL3364915

> <assay_description>
Cytotoxicity against human LNCAP cells after 72 hrs by MTT assay

> <document_journal>
Eur J Med Chem

> <molecule_chembl_id>
CHEMBL3327127

> <standard_value>
680

> <IC50_uM>
0.68

> <Activity>
Yes

> <Canonical_Smiles>
CO[C@H]1/C=C\C=C(/C)C(=O)NC2=CC(=O)C(NCc3ccsc3)=C(C[C@@H](C)C[C@H](OC)[C@H](O)[C@@H](C)/C=C(\C)[C@@H]1OC(N)=O)C2=O

$$$$

  SciTegic03142313312D

 46 48  0  0  1  0            999 V2000
    1.5209   -0.3790    0.0000 C   0  0
    2.8261    0.3603    0.0000 O   0  0
    4.1200   -0.4000    0.0000 C   0  0  1  0  0  0
    5.4200    0.3400    0.0000 C   0  0
    5.4200    1.8400    0.0000 C   0  0
    4.1200    2.6000    0.0000 C   0  0
    2.8100    1.8400    0.0000 C   0  0
    2.8075    0.3400    0.0000 C   0  0
    1.5100    2.6000    0.0000 C   0  0
    1.5125    4.1000    0.0000 O   0  0
    0.2000    1.8400    0.0000 N   0  0
   -1.0900    2.6000    0.0000 C   0  0
   -1.0900    4.1100    0.0000 C   0  0
   -2.4000    4.8600    0.0000 C   0  0
   -2.4025    6.3600    0.0000 O   0  0
   -3.7000    4.1100    0.0000 C   0  0
   -4.9968    4.8654    0.0000 N   0  0
   -4.9919    6.3662    0.0000 C   0  0
   -6.2887    7.1217    0.0000 C   0  0
   -7.6413    6.5031    0.0000 C   0  0
   -8.6429    7.6197    0.0000 N   0  0
   -7.8905    8.9174    0.0000 C   0  0
   -6.4239    8.6028    0.0000 N   0  0
   -5.3014    9.5978    0.0000 C   0  0
   -3.7000    2.6000    0.0000 C   0  0
   -5.0100    1.8400    0.0000 C   0  0
   -5.0100    0.3400    0.0000 C   0  0  1  0  0  0
   -6.3055   -0.4161    0.0000 C   0  0
   -3.7000   -0.4000    0.0000 C   0  0
   -3.2700   -2.0600    0.0000 C   0  0  2  0  0  0
   -4.1920   -3.2317    0.0000 O   0  0
   -5.6765   -3.0162    0.0000 C   0  0
   -1.0900   -1.9100    0.0000 C   0  0  2  0  0  0
   -0.7453   -0.4501    0.0000 O   0  0
    0.2000   -2.6700    0.0000 C   0  0  1  0  0  0
    0.1950   -4.1700    0.0000 C   0  0
    1.5100   -1.9100    0.0000 C   0  0
    2.8100   -2.6700    0.0000 C   0  0
    2.8075   -4.1700    0.0000 C   0  0
    4.1200   -1.9100    0.0000 C   0  0  2  0  0  0
    5.4195   -2.6606    0.0000 O   0  0
    5.4202   -4.1615    0.0000 C   0  0
    4.1213   -4.9116    0.0000 N   0  0
    6.7191   -4.9117    0.0000 O   0  0
   -2.4000    1.8400    0.0000 C   0  0
   -2.4025    0.3400    0.0000 O   0  0
  1  2  1  0
  3  2  1  1
  3  4  1  0
  4  5  2  0
  5  6  1  0
  6  7  2  0
  7  8  1  0
  7  9  1  0
  9 10  2  0
  9 11  1  0
 11 12  1  0
 12 13  2  0
 13 14  1  0
 14 15  2  0
 14 16  1  0
 16 17  1  0
 17 18  1  0
 18 19  1  0
 19 20  2  0
 20 21  1  0
 21 22  2  0
 22 23  1  0
 23 19  1  0
 23 24  1  0
 16 25  2  0
 25 26  1  0
 26 27  1  0
 27 28  1  6
 27 29  1  0
 29 30  1  0
 30 31  1  1
 31 32  1  0
 30 33  1  0
 33 34  1  6
 33 35  1  0
 35 36  1  6
 35 37  1  0
 37 38  2  0
 38 39  1  0
 38 40  1  0
 40  3  1  0
 40 41  1  1
 41 42  1  0
 42 43  1  0
 42 44  2  0
 25 45  1  0
 45 12  1  0
 45 46  2  0
M  END
> <assay_chembl_id>
CHEMBL3364915

> <assay_description>
Cytotoxicity against human LNCAP cells after 72 hrs by MTT assay

> <document_journal>
Eur J Med Chem

> <molecule_chembl_id>
CHEMBL3327128

> <standard_value>
440

> <IC50_uM>
0.44

> <Activity>
Yes

> <Canonical_Smiles>
CO[C@H]1/C=C\C=C(/C)C(=O)NC2=CC(=O)C(NCc3cncn3C)=C(C[C@@H](C)C[C@H](OC)[C@H](O)[C@@H](C)/C=C(\C)[C@@H]1OC(N)=O)C2=O

$$$$

  SciTegic03142313312D

 47 49  0  0  1  0            999 V2000
    1.5209   -0.3790    0.0000 C   0  0
    2.8261    0.3603    0.0000 O   0  0
    4.1200   -0.4000    0.0000 C   0  0  1  0  0  0
    5.4200    0.3400    0.0000 C   0  0
    5.4200    1.8400    0.0000 C   0  0
    4.1200    2.6000    0.0000 C   0  0
    2.8100    1.8400    0.0000 C   0  0
    2.8075    0.3400    0.0000 C   0  0
    1.5100    2.6000    0.0000 C   0  0
    1.5125    4.1000    0.0000 O   0  0
    0.2000    1.8400    0.0000 N   0  0
   -1.0900    2.6000    0.0000 C   0  0
   -1.0900    4.1100    0.0000 C   0  0
   -2.4000    4.8600    0.0000 C   0  0
   -2.4025    6.3600    0.0000 O   0  0
   -3.7000    4.1100    0.0000 C   0  0
   -4.9968    4.8654    0.0000 N   0  0
   -4.9919    6.3662    0.0000 C   0  0
   -6.2887    7.1217    0.0000 C   0  0
   -6.2860    8.6217    0.0000 C   0  0
   -7.5837    9.3741    0.0000 C   0  0
   -8.8841    8.6266    0.0000 C   0  0
  -10.1817    9.3790    0.0000 Cl  0  0
   -8.8869    7.1266    0.0000 N   0  0
   -7.5892    6.3741    0.0000 C   0  0
   -3.7000    2.6000    0.0000 C   0  0
   -5.0100    1.8400    0.0000 C   0  0
   -5.0100    0.3400    0.0000 C   0  0  1  0  0  0
   -6.3055   -0.4161    0.0000 C   0  0
   -3.7000   -0.4000    0.0000 C   0  0
   -3.2700   -2.0600    0.0000 C   0  0  2  0  0  0
   -4.1920   -3.2317    0.0000 O   0  0
   -5.6765   -3.0162    0.0000 C   0  0
   -1.0900   -1.9100    0.0000 C   0  0  2  0  0  0
   -0.7453   -0.4501    0.0000 O   0  0
    0.2000   -2.6700    0.0000 C   0  0  1  0  0  0
    0.1950   -4.1700    0.0000 C   0  0
    1.5100   -1.9100    0.0000 C   0  0
    2.8100   -2.6700    0.0000 C   0  0
    2.8075   -4.1700    0.0000 C   0  0
    4.1200   -1.9100    0.0000 C   0  0  2  0  0  0
    5.4195   -2.6606    0.0000 O   0  0
    5.4202   -4.1615    0.0000 C   0  0
    4.1213   -4.9116    0.0000 N   0  0
    6.7191   -4.9117    0.0000 O   0  0
   -2.4000    1.8400    0.0000 C   0  0
   -2.4025    0.3400    0.0000 O   0  0
  1  2  1  0
  3  2  1  1
  3  4  1  0
  4  5  2  0
  5  6  1  0
  6  7  2  0
  7  8  1  0
  7  9  1  0
  9 10  2  0
  9 11  1  0
 11 12  1  0
 12 13  2  0
 13 14  1  0
 14 15  2  0
 14 16  1  0
 16 17  1  0
 17 18  1  0
 18 19  1  0
 19 20  2  0
 20 21  1  0
 21 22  2  0
 22 23  1  0
 22 24  1  0
 24 25  2  0
 25 19  1  0
 16 26  2  0
 26 27  1  0
 27 28  1  0
 28 29  1  6
 28 30  1  0
 30 31  1  0
 31 32  1  1
 32 33  1  0
 31 34  1  0
 34 35  1  6
 34 36  1  0
 36 37  1  6
 36 38  1  0
 38 39  2  0
 39 40  1  0
 39 41  1  0
 41  3  1  0
 41 42  1  1
 42 43  1  0
 43 44  1  0
 43 45  2  0
 26 46  1  0
 46 12  1  0
 46 47  2  0
M  END
> <assay_chembl_id>
CHEMBL3364915

> <assay_description>
Cytotoxicity against human LNCAP cells after 72 hrs by MTT assay

> <document_journal>
Eur J Med Chem

> <molecule_chembl_id>
CHEMBL3327129

> <standard_value>
510

> <IC50_uM>
0.51

> <Activity>
Yes

> <Canonical_Smiles>
CO[C@H]1/C=C\C=C(/C)C(=O)NC2=CC(=O)C(NCc3ccc(Cl)nc3)=C(C[C@@H](C)C[C@H](OC)[C@H](O)[C@@H](C)/C=C(\C)[C@@H]1OC(N)=O)C2=O

$$$$

  SciTegic03142313312D

 50 52  0  0  1  0            999 V2000
    1.5209   -0.3790    0.0000 C   0  0
    2.8261    0.3603    0.0000 O   0  0
    4.1200   -0.4000    0.0000 C   0  0  1  0  0  0
    5.4200    0.3400    0.0000 C   0  0
    5.4200    1.8400    0.0000 C   0  0
    4.1200    2.6000    0.0000 C   0  0
    2.8100    1.8400    0.0000 C   0  0
    2.8075    0.3400    0.0000 C   0  0
    1.5100    2.6000    0.0000 C   0  0
    1.5125    4.1000    0.0000 O   0  0
    0.2000    1.8400    0.0000 N   0  0
   -1.0900    2.6000    0.0000 C   0  0
   -1.0900    4.1100    0.0000 C   0  0
   -2.4000    4.8600    0.0000 C   0  0
   -2.4025    6.3600    0.0000 O   0  0
   -3.7000    4.1100    0.0000 C   0  0
   -4.9968    4.8654    0.0000 N   0  0
   -4.9919    6.3662    0.0000 C   0  0
   -6.2887    7.1217    0.0000 C   0  0
   -6.2860    8.6217    0.0000 C   0  0
   -7.5837    9.3741    0.0000 C   0  0
   -8.8841    8.6266    0.0000 C   0  0
  -10.1824    9.3794    0.0000 C   0  0
  -10.1806   10.8794    0.0000 F   0  0
  -11.4826    8.6314    0.0000 F   0  0
  -11.4804   10.1312    0.0000 F   0  0
   -8.8869    7.1266    0.0000 N   0  0
   -7.5892    6.3741    0.0000 C   0  0
   -3.7000    2.6000    0.0000 C   0  0
   -5.0100    1.8400    0.0000 C   0  0
   -5.0100    0.3400    0.0000 C   0  0  1  0  0  0
   -6.3055   -0.4161    0.0000 C   0  0
   -3.7000   -0.4000    0.0000 C   0  0
   -3.2700   -2.0600    0.0000 C   0  0  2  0  0  0
   -4.1920   -3.2317    0.0000 O   0  0
   -5.6765   -3.0162    0.0000 C   0  0
   -1.0900   -1.9100    0.0000 C   0  0  2  0  0  0
   -0.7453   -0.4501    0.0000 O   0  0
    0.2000   -2.6700    0.0000 C   0  0  1  0  0  0
    0.1950   -4.1700    0.0000 C   0  0
    1.5100   -1.9100    0.0000 C   0  0
    2.8100   -2.6700    0.0000 C   0  0
    2.8075   -4.1700    0.0000 C   0  0
    4.1200   -1.9100    0.0000 C   0  0  2  0  0  0
    5.4195   -2.6606    0.0000 O   0  0
    5.4202   -4.1615    0.0000 C   0  0
    4.1213   -4.9116    0.0000 N   0  0
    6.7191   -4.9117    0.0000 O   0  0
   -2.4000    1.8400    0.0000 C   0  0
   -2.4025    0.3400    0.0000 O   0  0
  1  2  1  0
  3  2  1  1
  3  4  1  0
  4  5  2  0
  5  6  1  0
  6  7  2  0
  7  8  1  0
  7  9  1  0
  9 10  2  0
  9 11  1  0
 11 12  1  0
 12 13  2  0
 13 14  1  0
 14 15  2  0
 14 16  1  0
 16 17  1  0
 17 18  1  0
 18 19  1  0
 19 20  2  0
 20 21  1  0
 21 22  2  0
 22 23  1  0
 23 24  1  0
 23 25  1  0
 23 26  1  0
 22 27  1  0
 27 28  2  0
 28 19  1  0
 16 29  2  0
 29 30  1  0
 30 31  1  0
 31 32  1  6
 31 33  1  0
 33 34  1  0
 34 35  1  1
 35 36  1  0
 34 37  1  0
 37 38  1  6
 37 39  1  0
 39 40  1  6
 39 41  1  0
 41 42  2  0
 42 43  1  0
 42 44  1  0
 44  3  1  0
 44 45  1  1
 45 46  1  0
 46 47  1  0
 46 48  2  0
 29 49  1  0
 49 12  1  0
 49 50  2  0
M  END
> <assay_chembl_id>
CHEMBL3364915

> <assay_description>
Cytotoxicity against human LNCAP cells after 72 hrs by MTT assay

> <document_journal>
Eur J Med Chem

> <molecule_chembl_id>
CHEMBL3327130

> <standard_value>
350

> <IC50_uM>
0.35

> <Activity>
Yes

> <Canonical_Smiles>
CO[C@H]1/C=C\C=C(/C)C(=O)NC2=CC(=O)C(NCc3ccc(C(F)(F)F)nc3)=C(C[C@@H](C)C[C@H](OC)[C@H](O)[C@@H](C)/C=C(\C)[C@@H]1OC(N)=O)C2=O

$$$$

  SciTegic03142313312D

 30 34  0  0  0  0            999 V2000
    6.4966    0.7465    0.0000 C   0  0
    6.4963   -0.7535    0.0000 O   0  0
    5.1969   -1.5045    0.0000 C   0  0
    3.8991   -0.7525    0.0000 C   0  0
    2.5987   -1.5004    0.0000 C   0  0
    1.2990   -0.7500    0.0000 C   0  0
    1.2990    0.7500    0.0000 C   0  0
    0.0000    1.5000    0.0000 C   0  0
   -1.2990    0.7500    0.0000 C   0  0
   -1.2990   -0.7500    0.0000 C   0  0
   -2.4133   -1.7530    0.0000 N   0  0
   -1.8032   -3.1233    0.0000 C   0  0
   -2.5536   -4.4230    0.0000 C   0  0
   -4.0444   -4.5346    0.0000 C   0  0
   -4.6946   -5.8864    0.0000 C   0  0
   -3.8489   -7.1253    0.0000 C   0  0
   -4.2039   -8.5819    0.0000 N   0  0
   -2.9274   -9.3697    0.0000 C   0  0
   -1.7837   -8.3992    0.0000 C   0  0
   -2.3532   -7.0124    0.0000 C   0  0
   -1.7031   -5.6606    0.0000 C   0  0
   -0.3114   -2.9665    0.0000 N   0  0
    0.0000   -1.5000    0.0000 C   0  0
    2.5965   -3.0004    0.0000 C   0  0
    3.8943   -3.7525    0.0000 C   0  0
    3.8888   -5.2533    0.0000 O   0  0
    2.5875   -5.9994    0.0000 C   0  0
    5.1945   -3.0045    0.0000 C   0  0
    6.4946   -3.7543    0.0000 O   0  0
    7.7938   -3.0046    0.0000 C   0  0
  1  2  1  0
  2  3  1  0
  3  4  2  0
  4  5  1  0
  5  6  1  0
  6  7  2  0
  7  8  1  0
  8  9  2  0
  9 10  1  0
 10 11  1  0
 11 12  1  0
 12 13  1  0
 13 14  2  0
 14 15  1  0
 15 16  2  0
 16 17  1  0
 17 18  1  0
 18 19  2  0
 19 20  1  0
 20 16  1  0
 20 21  2  0
 21 13  1  0
 12 22  2  0
 22 23  1  0
 23  6  1  0
 23 10  2  0
  5 24  2  0
 24 25  1  0
 25 26  1  0
 26 27  1  0
 25 28  2  0
 28  3  1  0
 28 29  1  0
 29 30  1  0
M  END
> <assay_chembl_id>
CHEMBL3372006

> <assay_description>
Antiproliferative activity against human LNCAP cells after 96 hrs by SRB assay

> <document_journal>
J Med Chem

> <molecule_chembl_id>
CHEMBL3326468

> <standard_value>
28

> <IC50_uM>
0.028

> <Activity>
Yes

> <Canonical_Smiles>
COc1cc(-c2cccc3[nH]c(-c4ccc5[nH]ccc5c4)nc23)cc(OC)c1OC

$$$$

  SciTegic03142313312D

 30 34  0  0  0  0            999 V2000
    6.4966    0.7465    0.0000 C   0  0
    6.4963   -0.7535    0.0000 O   0  0
    5.1969   -1.5045    0.0000 C   0  0
    3.8991   -0.7525    0.0000 C   0  0
    2.5987   -1.5004    0.0000 C   0  0
    1.2990   -0.7500    0.0000 C   0  0
    1.2990    0.7500    0.0000 C   0  0
    0.0000    1.5000    0.0000 C   0  0
   -1.2990    0.7500    0.0000 C   0  0
   -1.2990   -0.7500    0.0000 C   0  0
   -2.4133   -1.7530    0.0000 N   0  0
   -1.8032   -3.1233    0.0000 C   0  0
   -2.5536   -4.4230    0.0000 C   0  0
   -1.8244   -5.7203    0.0000 C   0  0
   -2.8573   -6.8079    0.0000 N   0  0
   -4.2101   -6.1617    0.0000 C   0  0
   -5.5962   -6.7352    0.0000 C   0  0
   -6.7859   -5.8216    0.0000 C   0  0
   -6.5895   -4.3345    0.0000 C   0  0
   -5.2035   -3.7611    0.0000 C   0  0
   -4.0138   -4.6747    0.0000 C   0  0
   -0.3114   -2.9665    0.0000 N   0  0
    0.0000   -1.5000    0.0000 C   0  0
    2.5965   -3.0004    0.0000 C   0  0
    3.8943   -3.7525    0.0000 C   0  0
    3.8888   -5.2533    0.0000 O   0  0
    2.5875   -5.9994    0.0000 C   0  0
    5.1945   -3.0045    0.0000 C   0  0
    6.4946   -3.7543    0.0000 O   0  0
    7.7938   -3.0046    0.0000 C   0  0
  1  2  1  0
  2  3  1  0
  3  4  2  0
  4  5  1  0
  5  6  1  0
  6  7  2  0
  7  8  1  0
  8  9  2  0
  9 10  1  0
 10 11  1  0
 11 12  1  0
 12 13  1  0
 13 14  2  0
 14 15  1  0
 15 16  1  0
 16 17  2  0
 17 18  1  0
 18 19  2  0
 19 20  1  0
 20 21  2  0
 21 13  1  0
 21 16  1  0
 12 22  2  0
 22 23  1  0
 23  6  1  0
 23 10  2  0
  5 24  2  0
 24 25  1  0
 25 26  1  0
 26 27  1  0
 25 28  2  0
 28  3  1  0
 28 29  1  0
 29 30  1  0
M  END
> <assay_chembl_id>
CHEMBL3372006

> <assay_description>
Antiproliferative activity against human LNCAP cells after 96 hrs by SRB assay

> <document_journal>
J Med Chem

> <molecule_chembl_id>
CHEMBL3326469

> <standard_value>
800

> <IC50_uM>
0.8

> <Activity>
Yes

> <Canonical_Smiles>
COc1cc(-c2cccc3[nH]c(-c4c[nH]c5ccccc45)nc23)cc(OC)c1OC

$$$$

  SciTegic03142313312D

 30 34  0  0  0  0            999 V2000
    6.4966    0.7465    0.0000 C   0  0
    6.4963   -0.7535    0.0000 O   0  0
    5.1969   -1.5045    0.0000 C   0  0
    3.8991   -0.7525    0.0000 C   0  0
    2.5987   -1.5004    0.0000 C   0  0
    1.2990   -0.7500    0.0000 C   0  0
    1.2990    0.7500    0.0000 N   0  0
    0.0000    1.5000    0.0000 C   0  0
   -1.2990    0.7500    0.0000 C   0  0
   -1.2990   -0.7500    0.0000 C   0  0
   -2.4133   -1.7530    0.0000 N   0  0
   -1.8032   -3.1233    0.0000 C   0  0
   -2.5536   -4.4230    0.0000 C   0  0
   -4.0444   -4.5346    0.0000 C   0  0
   -4.6946   -5.8864    0.0000 C   0  0
   -3.8489   -7.1253    0.0000 C   0  0
   -4.2039   -8.5819    0.0000 N   0  0
   -2.9274   -9.3697    0.0000 C   0  0
   -1.7837   -8.3992    0.0000 C   0  0
   -2.3532   -7.0124    0.0000 C   0  0
   -1.7031   -5.6606    0.0000 C   0  0
   -0.3114   -2.9665    0.0000 N   0  0
    0.0000   -1.5000    0.0000 C   0  0
    2.5965   -3.0004    0.0000 C   0  0
    3.8943   -3.7525    0.0000 C   0  0
    3.8888   -5.2533    0.0000 O   0  0
    2.5875   -5.9994    0.0000 C   0  0
    5.1945   -3.0045    0.0000 C   0  0
    6.4946   -3.7543    0.0000 O   0  0
    7.7938   -3.0046    0.0000 C   0  0
  1  2  1  0
  2  3  1  0
  3  4  2  0
  4  5  1  0
  5  6  1  0
  6  7  2  0
  7  8  1  0
  8  9  2  0
  9 10  1  0
 10 11  1  0
 11 12  1  0
 12 13  1  0
 13 14  2  0
 14 15  1  0
 15 16  2  0
 16 17  1  0
 17 18  1  0
 18 19  2  0
 19 20  1  0
 20 16  1  0
 20 21  2  0
 21 13  1  0
 12 22  2  0
 22 23  1  0
 23  6  1  0
 23 10  2  0
  5 24  2  0
 24 25  1  0
 25 26  1  0
 26 27  1  0
 25 28  2  0
 28  3  1  0
 28 29  1  0
 29 30  1  0
M  END
> <assay_chembl_id>
CHEMBL3372006

> <assay_description>
Antiproliferative activity against human LNCAP cells after 96 hrs by SRB assay

> <document_journal>
J Med Chem

> <molecule_chembl_id>
CHEMBL3326471

> <standard_value>
5

> <IC50_uM>
0.005

> <Activity>
Yes

> <Canonical_Smiles>
COc1cc(-c2nccc3[nH]c(-c4ccc5[nH]ccc5c4)nc23)cc(OC)c1OC

$$$$

  SciTegic03142313312D

 27 29  0  0  0  0            999 V2000
    3.8912   -5.2570    0.0000 C   0  0
    3.8933   -3.7570    0.0000 O   0  0
    2.5951   -3.0039    0.0000 C   0  0
    2.5973   -1.5031    0.0000 O   0  0
    1.2990   -0.7500    0.0000 C   0  0
    1.2990    0.7500    0.0000 C   0  0
    2.5972    1.5031    0.0000 O   0  0
    2.5951    3.0031    0.0000 C   0  0
    0.0000    1.5000    0.0000 C   0  0
   -1.2990    0.7500    0.0000 C   0  0
   -2.6003    1.4977    0.0000 C   0  0
   -2.6030    2.9977    0.0000 O   0  0
   -3.8990    0.7455    0.0000 C   0  0
   -5.2526    1.3618    0.0000 C   0  0
   -6.2524    0.2436    0.0000 S   0  0
   -5.4979   -1.0529    0.0000 C   0  0
   -6.1035   -2.4260    0.0000 C   0  0
   -7.5736   -2.6979    0.0000 C   0  0
   -8.0739   -4.1120    0.0000 C   0  0
   -7.0995   -5.2524    0.0000 C   0  0
   -5.6247   -4.9786    0.0000 C   0  0
   -5.1243   -3.5646    0.0000 C   0  0
   -4.0317   -0.7359    0.0000 N   0  0
   -1.2990   -0.7500    0.0000 C   0  0
    0.0000   -1.5000    0.0000 C   0  0
   -0.0031   -3.0008    0.0000 O   0  0
   -1.3032   -3.7490    0.0000 C   0  0
  1  2  1  0
  2  3  1  0
  3  4  1  0
  4  5  1  0
  5  6  2  0
  6  7  1  0
  7  8  1  0
  6  9  1  0
  9 10  2  0
 10 11  1  0
 11 12  2  0
 11 13  1  0
 13 14  2  0
 14 15  1  0
 15 16  1  0
 16 17  1  0
 17 18  2  0
 18 19  1  0
 19 20  2  0
 20 21  1  0
 21 22  2  0
 22 17  1  0
 16 23  2  0
 23 13  1  0
 10 24  1  0
 24 25  2  0
 25  5  1  0
 25 26  1  0
 26 27  1  0
M  END
> <assay_chembl_id>
CHEMBL3372006

> <assay_description>
Antiproliferative activity against human LNCAP cells after 96 hrs by SRB assay

> <document_journal>
J Med Chem

> <molecule_chembl_id>
CHEMBL3326070

> <standard_value>
31

> <IC50_uM>
0.031

> <Activity>
Yes

> <Canonical_Smiles>
COCOc1c(OC)cc(C(=O)c2csc(-c3ccccc3)n2)cc1OC

$$$$

  SciTegic03142313312D

 27 29  0  0  0  0            999 V2000
    3.8983   -0.7459    0.0000 C   0  0
    2.6003   -1.4977    0.0000 O   0  0
    1.2990   -0.7500    0.0000 C   0  0
    1.2990    0.7500    0.0000 C   0  0
    0.0000    1.5000    0.0000 C   0  0
   -0.0031    3.0008    0.0000 C   0  0
    1.2946    3.7531    0.0000 O   0  0
   -1.3039    3.7494    0.0000 C   0  0
   -1.4470    5.2297    0.0000 C   0  0
   -2.9153    5.5365    0.0000 S   0  0
   -3.6607    4.2349    0.0000 C   0  0
   -5.1527    4.0728    0.0000 C   0  0
   -6.1233    5.2100    0.0000 C   0  0
   -7.5981    4.9362    0.0000 C   0  0
   -8.0984    3.5221    0.0000 C   0  0
   -7.1240    2.3818    0.0000 C   0  0
   -5.6491    2.6555    0.0000 C   0  0
   -2.6532    3.1236    0.0000 N   0  0
   -1.2990    0.7500    0.0000 C   0  0
   -1.2990   -0.7500    0.0000 C   0  0
   -2.6003   -1.4978    0.0000 O   0  0
   -3.8983   -0.7459    0.0000 C   0  0
    0.0000   -1.5000    0.0000 C   0  0
    0.0031   -3.0008    0.0000 O   0  0
    1.3039   -3.7494    0.0000 C   0  0
    1.3070   -5.2502    0.0000 C   0  0
    2.6071   -5.9984    0.0000 N   0  0
  1  2  1  0
  2  3  1  0
  3  4  2  0
  4  5  1  0
  5  6  1  0
  6  7  2  0
  6  8  1  0
  8  9  2  0
  9 10  1  0
 10 11  1  0
 11 12  1  0
 12 13  2  0
 13 14  1  0
 14 15  2  0
 15 16  1  0
 16 17  2  0
 17 12  1  0
 11 18  2  0
 18  8  1  0
  5 19  2  0
 19 20  1  0
 20 21  1  0
 21 22  1  0
 20 23  2  0
 23  3  1  0
 23 24  1  0
 24 25  1  0
 25 26  1  0
 26 27  1  0
M  END
> <assay_chembl_id>
CHEMBL3372006

> <assay_description>
Antiproliferative activity against human LNCAP cells after 96 hrs by SRB assay

> <document_journal>
J Med Chem

> <molecule_chembl_id>
CHEMBL3326072

> <standard_value>
117

> <IC50_uM>
0.117

> <Activity>
Yes

> <Canonical_Smiles>
COc1cc(C(=O)c2csc(-c3ccccc3)n2)cc(OC)c1OCCN

$$$$

  SciTegic03142313312D

 29 32  0  0  0  0            999 V2000
   -3.2084   -9.9544    0.0000 C   0  0
   -3.8110   -8.5807    0.0000 O   0  0
   -2.9229   -7.3709    0.0000 C   0  0
   -1.4322   -7.5380    0.0000 C   0  0
   -0.5420   -6.3307    0.0000 C   0  0
    0.9498   -6.4949    0.0000 C   0  0
    1.5527   -7.8684    0.0000 O   0  0
    1.8372   -5.2877    0.0000 C   0  0
    3.3372   -5.2929    0.0000 C   0  0
    3.8056   -3.8679    0.0000 S   0  0
    2.5951   -3.0039    0.0000 C   0  0
    2.5973   -1.5031    0.0000 N   0  0
    1.2990   -0.7500    0.0000 C   0  0
    1.2990    0.7500    0.0000 C   0  0
    0.0000    1.5000    0.0000 C   0  0
   -1.2990    0.7500    0.0000 C   0  0
   -2.7248    1.2135    0.0000 N   0  0
   -3.6065    0.0000    0.0000 C   0  0
   -2.7248   -1.2135    0.0000 C   0  0
   -1.2990   -0.7500    0.0000 C   0  0
    0.0000   -1.5000    0.0000 C   0  0
    1.3786   -3.8595    0.0000 N   0  0
   -1.1427   -4.9561    0.0000 C   0  0
   -2.6333   -4.7890    0.0000 C   0  0
   -3.2314   -3.4125    0.0000 O   0  0
   -2.3396   -2.2064    0.0000 C   0  0
   -3.5234   -5.9963    0.0000 C   0  0
   -5.0152   -5.8322    0.0000 O   0  0
   -5.9036   -7.0408    0.0000 C   0  0
  1  2  1  0
  2  3  1  0
  3  4  2  0
  4  5  1  0
  5  6  1  0
  6  7  2  0
  6  8  1  0
  8  9  2  0
  9 10  1  0
 10 11  1  0
 11 12  1  0
 12 13  1  0
 13 14  2  0
 14 15  1  0
 15 16  2  0
 16 17  1  0
 17 18  1  0
 18 19  2  0
 19 20  1  0
 20 16  1  0
 20 21  2  0
 21 13  1  0
 11 22  2  0
 22  8  1  0
  5 23  2  0
 23 24  1  0
 24 25  1  0
 25 26  1  0
 24 27  2  0
 27  3  1  0
 27 28  1  0
 28 29  1  0
M  END
> <assay_chembl_id>
CHEMBL3372006

> <assay_description>
Antiproliferative activity against human LNCAP cells after 96 hrs by SRB assay

> <document_journal>
J Med Chem

> <molecule_chembl_id>
CHEMBL3326074

> <standard_value>
13

> <IC50_uM>
0.013

> <Activity>
Yes

> <Canonical_Smiles>
COc1cc(C(=O)c2csc(Nc3ccc4[nH]ccc4c3)n2)cc(OC)c1OC

$$$$

  SciTegic03142313312D

180184  0  0  1  0            999 V2000
   -4.8073  -35.8187    0.0000 C   0  0
   -3.5860  -34.9478    0.0000 C   0  0
   -2.2200  -35.5694    0.0000 C   0  0  2  0  0  0
   -2.0759  -37.0625    0.0000 C   0  0
   -0.9981  -34.6980    0.0000 C   0  0  2  0  0  0
   -1.1453  -33.2044    0.0000 N   0  0
   -2.5120  -32.5843    0.0000 C   0  0
   -3.7315  -33.4577    0.0000 O   0  0
   -2.6593  -31.0907    0.0000 C   0  0  1  0  0  0
   -4.0260  -30.4706    0.0000 N   0  0
   -4.1732  -28.9770    0.0000 C   0  0
   -2.9538  -28.1035    0.0000 O   0  0
   -5.5375  -28.3579    0.0000 C   0  0  2  0  0  0
   -6.8460  -29.0913    0.0000 C   0  0
   -7.9479  -28.0735    0.0000 C   0  0  1  0  0  0
   -9.4189  -28.3666    0.0000 O   0  0
   -7.3204  -26.7110    0.0000 C   0  0
   -5.8455  -26.9029    0.0000 N   0  0
   -4.8294  -25.7983    0.0000 C   0  0
   -3.3657  -26.1263    0.0000 O   0  0
   -5.2770  -24.3658    0.0000 C   0  0  2  0  0  0
   -6.7407  -24.0378    0.0000 C   0  0
   -4.2609  -23.2612    0.0000 N   0  0
   -4.7085  -21.8287    0.0000 C   0  0
   -6.1723  -21.5007    0.0000 O   0  0
   -3.6925  -20.7242    0.0000 C   0  0  2  0  0  0
   -2.2273  -21.0493    0.0000 C   0  0
   -1.2124  -19.9436    0.0000 C   0  0
    0.2528  -20.2688    0.0000 C   0  0
    1.2677  -19.1631    0.0000 C   0  0
    2.7320  -19.4881    0.0000 N   0  0
   -4.1401  -19.2917    0.0000 N   0  0
   -3.1240  -18.1871    0.0000 C   0  0
   -1.6603  -18.5151    0.0000 O   0  0
   -3.5716  -16.7546    0.0000 C   0  0
   -2.5555  -15.6500    0.0000 C   0  0
   -3.0031  -14.2175    0.0000 C   0  0
   -1.9870  -13.1130    0.0000 C   0  0
   -2.4346  -11.6804    0.0000 C   0  0
   -1.4185  -10.5759    0.0000 C   0  0
   -1.8661   -9.1434    0.0000 C   0  0
   -3.3298   -8.8154    0.0000 O   0  0
   -0.8500   -8.0388    0.0000 N   0  0
   -1.2977   -6.6063    0.0000 C   0  0
   -0.2816   -5.5018    0.0000 C   0  0
    1.1821   -5.8297    0.0000 O   0  0
   -0.7292   -4.0692    0.0000 O   0  0
    0.2851   -2.9666    0.0000 C   0  0  1  0  0  0
    1.7758   -3.1329    0.0000 C   0  0
    2.3947   -1.7666    0.0000 C   0  0
    1.2990   -0.7500    0.0000 C   0  0  1  0  0  0
    1.2990    0.7500    0.0000 C   0  0  2  0  0  0
    2.5981    1.5000    0.0000 C   0  0
    2.5981    3.0000    0.0000 C   0  0
    1.2990    3.7500    0.0000 C   0  0  1  0  0  0
    1.2990    5.2500    0.0000 C   0  0
    0.0000    6.0000    0.0000 C   0  0
   -0.0001    7.5000    0.0000 O   0  0
   -1.2991    5.2500    0.0000 C   0  0
   -1.2991    3.7500    0.0000 C   0  0
    0.0000    3.0000    0.0000 C   0  0  1  0  0  0
   -1.2991    2.2500    0.0000 C   0  0
    0.0000    1.5000    0.0000 C   0  0  1  0  0  0
   -1.2990    0.7500    0.0000 C   0  0
   -1.2990   -0.7500    0.0000 C   0  0
    0.0000   -1.5000    0.0000 C   0  0  2  0  0  0
   -1.2212   -2.3711    0.0000 C   0  0
   -1.4409  -30.2143    0.0000 C   0  0  1  0  0  0
   -0.0737  -30.8312    0.0000 C   0  0
   -1.5898  -28.7217    0.0000 O   0  0
    0.3686  -35.3181    0.0000 C   0  0
    1.5881  -34.4447    0.0000 O   0  0
    0.5159  -36.8117    0.0000 N   0  0
    1.8826  -37.4319    0.0000 C   0  0
    2.0298  -38.9255    0.0000 C   0  0
    0.8104  -39.7989    0.0000 O   0  0
    3.3966  -39.5456    0.0000 N   0  0
    3.5438  -41.0392    0.0000 C   0  0
    4.9105  -41.6593    0.0000 C   0  0
    6.1300  -40.7859    0.0000 O   0  0
    5.0578  -43.1529    0.0000 N   0  0
    6.4245  -43.7730    0.0000 C   0  0  2  0  0  0
    7.6428  -42.8966    0.0000 C   0  0
    7.4939  -41.4032    0.0000 C   0  0
    8.7123  -40.5267    0.0000 C   0  0
    8.5634  -39.0333    0.0000 N   0  0
    9.7817  -38.1569    0.0000 C   0  0
    9.6329  -36.6643    0.0000 N   0  0
   11.1489  -38.7739    0.0000 N   0  0
    6.5717  -45.2666    0.0000 C   0  0
    5.3523  -46.1401    0.0000 O   0  0
    7.9384  -45.8868    0.0000 N   0  0
    8.0857  -47.3803    0.0000 C   0  0  2  0  0  0
    6.8637  -48.2518    0.0000 C   0  0
    5.4977  -47.6301    0.0000 C   0  0
    4.2758  -48.5015    0.0000 C   0  0
    2.9098  -47.8799    0.0000 N   0  0
    1.6878  -48.7513    0.0000 C   0  0
    0.3226  -48.1300    0.0000 N   0  0
    1.8319  -50.2443    0.0000 N   0  0
    9.4524  -48.0005    0.0000 C   0  0
   10.6719  -47.1270    0.0000 O   0  0
    9.5996  -49.4941    0.0000 N   0  0
   10.9664  -50.1142    0.0000 C   0  0  2  0  0  0
   12.1847  -49.2378    0.0000 C   0  0
   12.0358  -47.7443    0.0000 C   0  0
   13.2541  -46.8679    0.0000 C   0  0
   13.1052  -45.3745    0.0000 N   0  0
   14.3236  -44.4981    0.0000 C   0  0
   14.1747  -43.0055    0.0000 N   0  0
   15.6908  -45.1150    0.0000 N   0  0
   11.1136  -51.6078    0.0000 C   0  0
    9.8941  -52.4812    0.0000 O   0  0
   12.4803  -52.2279    0.0000 N   0  0
   12.6276  -53.7215    0.0000 C   0  0  2  0  0  0
   11.4056  -54.5929    0.0000 C   0  0
   10.0396  -53.9713    0.0000 C   0  0
    8.8177  -54.8427    0.0000 C   0  0
    7.4516  -54.2210    0.0000 N   0  0
    6.2297  -55.0925    0.0000 C   0  0
    4.8644  -54.4711    0.0000 N   0  0
    6.3738  -56.5855    0.0000 N   0  0
   13.9943  -54.3416    0.0000 C   0  0
   15.2137  -53.4682    0.0000 O   0  0
   14.1415  -55.8352    0.0000 N   0  0
   15.5082  -56.4554    0.0000 C   0  0  2  0  0  0
   16.7266  -55.5789    0.0000 C   0  0
   16.5777  -54.0855    0.0000 C   0  0
   17.7960  -53.2091    0.0000 C   0  0
   17.6471  -51.7157    0.0000 N   0  0
   18.8654  -50.8392    0.0000 C   0  0
   18.7166  -49.3466    0.0000 N   0  0
   20.2327  -51.4562    0.0000 N   0  0
   15.6555  -57.9490    0.0000 C   0  0
   14.4360  -58.8224    0.0000 O   0  0
   17.0222  -58.5691    0.0000 N   0  0
   17.1694  -60.0627    0.0000 C   0  0  2  0  0  0
   15.9475  -60.9341    0.0000 C   0  0
   14.5815  -60.3124    0.0000 C   0  0
   13.3595  -61.1839    0.0000 C   0  0
   11.9935  -60.5622    0.0000 N   0  0
   10.7716  -61.4336    0.0000 C   0  0
    9.4063  -60.8123    0.0000 N   0  0
   10.9157  -62.9267    0.0000 N   0  0
   18.5362  -60.6828    0.0000 C   0  0
   19.7556  -59.8094    0.0000 O   0  0
   18.6834  -62.1764    0.0000 N   0  0
   20.0501  -62.7965    0.0000 C   0  0  2  0  0  0
   21.2685  -61.9201    0.0000 C   0  0
   21.1196  -60.4267    0.0000 C   0  0
   22.3379  -59.5502    0.0000 C   0  0
   22.1890  -58.0568    0.0000 N   0  0
   23.4073  -57.1804    0.0000 C   0  0
   23.2585  -55.6878    0.0000 N   0  0
   24.7746  -57.7974    0.0000 N   0  0
   20.1974  -64.2901    0.0000 C   0  0
   18.9779  -65.1636    0.0000 O   0  0
   21.5641  -64.9103    0.0000 N   0  0
   21.7113  -66.4038    0.0000 C   0  0  2  0  0  0
   20.4894  -67.2753    0.0000 C   0  0
   19.1234  -66.6536    0.0000 C   0  0
   17.9014  -67.5250    0.0000 C   0  0
   16.5354  -66.9034    0.0000 N   0  0
   15.3135  -67.7748    0.0000 C   0  0
   13.9482  -67.1535    0.0000 N   0  0
   15.4576  -69.2678    0.0000 N   0  0
   23.0780  -67.0240    0.0000 C   0  0
   24.2975  -66.1505    0.0000 O   0  0
   23.2253  -68.5176    0.0000 N   0  0
   24.5920  -69.1377    0.0000 C   0  0  2  0  0  0
   24.7392  -70.6313    0.0000 C   0  0
   26.1059  -71.2514    0.0000 C   0  0
   26.2532  -72.7450    0.0000 C   0  0
   27.6199  -73.3652    0.0000 N   0  0
   27.7672  -74.8587    0.0000 C   0  0
   29.1331  -75.4785    0.0000 N   0  0
   26.5477  -75.7322    0.0000 N   0  0
   25.8139  -68.2663    0.0000 C   0  0
   27.1792  -68.8876    0.0000 O   0  0
   25.6698  -66.7732    0.0000 O   0  0
  1  2  1  0
  2  3  1  0
  3  4  1  1
  3  5  1  0
  5  6  1  6
  6  7  1  0
  7  8  2  0
  7  9  1  0
  9 10  1  1
 10 11  1  0
 11 12  2  0
 13 11  1  6
 13 14  1  0
 14 15  1  0
 15 16  1  1
 15 17  1  0
 17 18  1  0
 18 13  1  0
 18 19  1  0
 19 20  2  0
 19 21  1  0
 21 22  1  6
 21 23  1  0
 23 24  1  0
 24 25  2  0
 24 26  1  0
 26 27  1  1
 27 28  1  0
 28 29  1  0
 29 30  1  0
 30 31  1  0
 26 32  1  0
 32 33  1  0
 33 34  2  0
 33 35  1  0
 35 36  1  0
 36 37  1  0
 37 38  1  0
 38 39  1  0
 39 40  1  0
 40 41  1  0
 41 42  2  0
 41 43  1  0
 43 44  1  0
 44 45  1  0
 45 46  2  0
 45 47  1  0
 48 47  1  6
 48 49  1  0
 49 50  1  0
 51 50  1  6
 51 52  1  0
 52 53  1  1
 53 54  1  0
 55 54  1  6
 55 56  1  0
 56 57  1  0
 57 58  2  0
 57 59  1  0
 59 60  1  0
 60 61  1  0
 61 55  1  0
 61 62  1  6
 61 63  1  0
 63 52  1  0
 63 64  1  6
 64 65  1  0
 65 66  1  0
 66 48  1  0
 66 51  1  0
 66 67  1  6
  9 68  1  0
 68 69  1  6
 68 70  1  0
  5 71  1  0
 71 72  2  0
 71 73  1  0
 73 74  1  0
 74 75  1  0
 75 76  2  0
 75 77  1  0
 77 78  1  0
 78 79  1  0
 79 80  2  0
 79 81  1  0
 82 81  1  6
 82 83  1  0
 83 84  1  0
 84 85  1  0
 85 86  1  0
 86 87  1  0
 87 88  2  0
 87 89  1  0
 82 90  1  0
 90 91  2  0
 90 92  1  0
 93 92  1  1
 93 94  1  0
 94 95  1  0
 95 96  1  0
 96 97  1  0
 97 98  1  0
 98 99  2  0
 98100  1  0
 93101  1  0
101102  2  0
101103  1  0
104103  1  6
104105  1  0
105106  1  0
106107  1  0
107108  1  0
108109  1  0
109110  2  0
109111  1  0
104112  1  0
112113  2  0
112114  1  0
115114  1  1
115116  1  0
116117  1  0
117118  1  0
118119  1  0
119120  1  0
120121  2  0
120122  1  0
115123  1  0
123124  2  0
123125  1  0
126125  1  6
126127  1  0
127128  1  0
128129  1  0
129130  1  0
130131  1  0
131132  2  0
131133  1  0
126134  1  0
134135  2  0
134136  1  0
137136  1  1
137138  1  0
138139  1  0
139140  1  0
140141  1  0
141142  1  0
142143  2  0
142144  1  0
137145  1  0
145146  2  0
145147  1  0
148147  1  6
148149  1  0
149150  1  0
150151  1  0
151152  1  0
152153  1  0
153154  2  0
153155  1  0
148156  1  0
156157  2  0
156158  1  0
159158  1  1
159160  1  0
160161  1  0
161162  1  0
162163  1  0
163164  1  0
164165  2  0
164166  1  0
159167  1  0
167168  2  0
167169  1  0
170169  1  1
170171  1  0
171172  1  0
172173  1  0
173174  1  0
174175  1  0
175176  2  0
175177  1  0
170178  1  0
178179  2  0
178180  1  0
M  END
> <assay_chembl_id>
CHEMBL3368101

> <assay_description>
Growth inhibition of human LNCAP cells expressing androgen receptor after 144 hrs

> <document_journal>
J Med Chem

> <molecule_chembl_id>
CHEMBL3341968

> <standard_value>
217

> <IC50_uM>
0.217

> <Activity>
Yes

> <Canonical_Smiles>
CC[C@H](C)[C@H](NC(=O)[C@@H](NC(=O)[C@@H]1C[C@@H](O)CN1C(=O)[C@H](C)NC(=O)[C@H](CCCCN)NC(=O)CCCCCCC(=O)NCC(=O)O[C@H]1CC[C@H]2[C@@H]3CC[C@H]4CC(=O)CC[C@]4(C)[C@H]3CC[C@]12C)[C@@H](C)O)C(=O)NCC(=O)NCC(=
O)N[C@H](CCCNC(=N)N)C(=O)N[C@H](CCCNC(=N)N)C(=O)N[C@H](CCCNC(=N)N)C(=O)N[C@H](CCCNC(=N)N)C(=O)N[C@H](CCCNC(=N)N)C(=O)N[C@H](CCCNC(=N)N)C(=O)N[C@H](CCCNC(=N)N)C(=O)N[C@H](CCCNC(=N)N)C(=O)N[C@H](CCCNC(=
N)N)C(=O)O

$$$$

  SciTegic03142313312D

 23 25  0  0  0  0            999 V2000
   -1.3780  -10.5251    0.0000 C   0  0
   -0.0055   -9.9198    0.0000 C   0  0
    1.2909  -10.6743    0.0000 C   0  0
    2.4091   -9.6745    0.0000 C   0  0
    1.7928   -8.3210    0.0000 C   0  0
    2.5451   -7.0223    0.0000 C   0  0
    1.7974   -5.7210    0.0000 N   0  0
    2.5497   -4.4224    0.0000 C   0  0
    4.0497   -4.4250    0.0000 O   0  0
    1.8032   -3.1233    0.0000 C   0  0
    2.4133   -1.7530    0.0000 C   0  0
    1.2990   -0.7500    0.0000 C   0  0
    1.2990    0.7500    0.0000 C   0  0
    0.0000    1.5000    0.0000 C   0  0
   -1.2990    0.7500    0.0000 C   0  0
   -2.5981    1.5000    0.0000 F   0  0
   -1.2990   -0.7500    0.0000 C   0  0
    0.0000   -1.5000    0.0000 C   0  0
    0.3114   -2.9665    0.0000 N   0  0
    0.2965   -5.7215    0.0000 C   0  0
   -0.4539   -7.0203    0.0000 C   0  0
   -0.4534   -4.4224    0.0000 C   0  0
    0.3115   -8.4537    0.0000 O   0  0
  1  2  1  0
  2  3  2  0
  3  4  1  0
  4  5  2  0
  5  6  1  0
  6  7  1  0
  7  8  1  0
  8  9  2  0
  8 10  1  0
 10 11  2  0
 11 12  1  0
 12 13  2  0
 13 14  1  0
 14 15  2  0
 15 16  1  0
 15 17  1  0
 17 18  2  0
 18 12  1  0
 18 19  1  0
 19 10  1  0
  7 20  1  0
 20 21  1  0
 20 22  1  0
  5 23  1  0
 23  2  1  0
M  END
> <assay_chembl_id>
CHEMBL3369089

> <assay_description>
Antiproliferative activity against human LNCAP cells after 4 days by MTS assay

> <document_journal>
J Med Chem

> <molecule_chembl_id>
CHEMBL3318068

> <standard_value>
550

> <IC50_uM>
0.55

> <Activity>
Yes

> <Canonical_Smiles>
Cc1ccc(CN(C(=O)c2cc3ccc(F)cc3[nH]2)C(C)C)o1

$$$$

  SciTegic03142313312D

 46 53  0  0  1  0            999 V2000
    2.5981    0.0000    0.0000 C   0  0
    1.2990   -0.7500    0.0000 C   0  0  2  0  0  0
    1.2990    0.7500    0.0000 C   0  0
    0.0000    1.5000    0.0000 C   0  0  2  0  0  0
    0.0000    3.0008    0.0000 N   0  0
   -1.2979    3.7529    0.0000 C   0  0
   -1.2955    5.2529    0.0000 C   0  0
    0.0047    6.0009    0.0000 N   0  0
    0.0102    7.5017    0.0000 C   0  0
   -1.2864    8.2560    0.0000 O   0  0
    1.3122    8.2482    0.0000 C   0  0  2  0  0  0
    2.6604    7.6203    0.0000 C   0  0
    3.6698    8.7299    0.0000 C   0  0
    2.9263   10.0328    0.0000 C   0  0
    1.4576    9.7283    0.0000 N   0  0
    0.3436   10.7302    0.0000 C   0  0
   -1.0825   10.2654    0.0000 O   0  0
    0.6539   12.1986    0.0000 C   0  0
   -0.4599   13.2033    0.0000 C   0  0
   -0.1468   14.6703    0.0000 C   0  0
    1.2802   15.1326    0.0000 C   0  0
    1.5933   16.5996    0.0000 C   0  0
    3.0203   17.0619    0.0000 C   0  0
    4.1341   16.0572    0.0000 C   0  0
    3.8210   14.5903    0.0000 C   0  0
    2.3940   14.1280    0.0000 C   0  0
    2.0809   12.6610    0.0000 N   0  0
    1.3026    5.2488    0.0000 C   0  0
    1.3002    3.7488    0.0000 C   0  0
   -1.2990    0.7500    0.0000 C   0  0  1  0  0  0
   -2.5981    1.5000    0.0000 O   0  0
   -1.2990   -0.7500    0.0000 C   0  0
    0.0000   -1.5000    0.0000 C   0  0  2  0  0  0
    0.0000   -3.0000    0.0000 C   0  0
    1.2990   -3.7500    0.0000 C   0  0
    2.5981   -3.0000    0.0000 C   0  0  2  0  0  0
    2.5981   -1.5000    0.0000 C   0  0  2  0  0  0
    3.8971   -0.7500    0.0000 C   0  0
    5.1962   -1.5000    0.0000 C   0  0
    5.1962   -3.0000    0.0000 C   0  0  2  0  0  0
    6.5611   -2.3779    0.0000 C   0  0
    6.3238   -3.9802    0.0000 C   0  0
    7.7872   -3.6508    0.0000 O   0  0
    5.7224   -5.3544    0.0000 C   0  0
    4.2297   -5.2071    0.0000 C   0  0
    3.8971   -3.7500    0.0000 C   0  0  1  0  0  0
  2  1  1  1
  2  3  1  0
  3  4  1  0
  4  5  1  1
  5  6  1  0
  6  7  1  0
  7  8  1  0
  8  9  1  0
  9 10  2  0
 11  9  1  1
 11 12  1  0
 12 13  1  0
 13 14  1  0
 14 15  1  0
 15 11  1  0
 15 16  1  0
 16 17  2  0
 16 18  1  0
 18 19  2  0
 19 20  1  0
 20 21  2  0
 21 22  1  0
 22 23  2  0
 23 24  1  0
 24 25  2  0
 25 26  1  0
 26 21  1  0
 26 27  2  0
 27 18  1  0
  8 28  1  0
 28 29  1  0
 29  5  1  0
  4 30  1  0
 30 31  1  6
 30 32  1  0
 33 32  1  1
 33  2  1  0
 33 34  1  0
 34 35  1  0
 36 35  1  6
 36 37  1  0
 37  2  1  0
 37 38  1  1
 38 39  1  0
 39 40  1  0
 40 41  1  1
 40 42  1  0
 42 43  2  0
 42 44  1  0
 44 45  1  0
 46 45  1  1
 46 36  1  0
 46 40  1  0
M  END
> <assay_chembl_id>
CHEMBL3382596

> <assay_description>
Antiproliferative activity against human LNCAP cells assessed as reduction in cell growth after 24 hrs by MTS assay

> <document_journal>
Bioorg Med Chem

> <molecule_chembl_id>
CHEMBL3344120

> <standard_value>
800

> <IC50_uM>
0.8

> <Activity>
Yes

> <Canonical_Smiles>
C[C@]12C[C@H](N3CCN(C(=O)[C@@H]4CCCN4C(=O)c4ccc5ccccc5n4)CC3)[C@@H](O)C[C@@H]1CC[C@@H]1[C@@H]2CC[C@]2(C)C(=O)CC[C@@H]12

$$$$

  SciTegic03142313312D

 46 53  0  0  1  0            999 V2000
    2.5981    0.0000    0.0000 C   0  0
    1.2990   -0.7500    0.0000 C   0  0  2  0  0  0
    1.2990    0.7500    0.0000 C   0  0
    0.0000    1.5000    0.0000 C   0  0  2  0  0  0
    0.0000    3.0008    0.0000 N   0  0
   -1.2979    3.7529    0.0000 C   0  0
   -1.2955    5.2529    0.0000 C   0  0
    0.0047    6.0009    0.0000 N   0  0
    0.0102    7.5017    0.0000 C   0  0
   -1.2864    8.2560    0.0000 O   0  0
    1.3122    8.2482    0.0000 C   0  0  2  0  0  0
    2.6604    7.6203    0.0000 C   0  0
    3.6698    8.7299    0.0000 C   0  0
    2.9263   10.0328    0.0000 C   0  0
    1.4576    9.7283    0.0000 N   0  0
    0.3436   10.7302    0.0000 C   0  0
   -1.0825   10.2654    0.0000 O   0  0
    0.6539   12.1986    0.0000 C   0  0
    2.0809   12.6610    0.0000 C   0  0
    2.3940   14.1280    0.0000 C   0  0
    1.2802   15.1326    0.0000 C   0  0
   -0.1468   14.6703    0.0000 C   0  0
   -1.2607   15.6749    0.0000 C   0  0
   -2.6877   15.2126    0.0000 C   0  0
   -3.0008   13.7457    0.0000 C   0  0
   -1.8869   12.7410    0.0000 C   0  0
   -0.4599   13.2033    0.0000 C   0  0
    1.3026    5.2488    0.0000 C   0  0
    1.3002    3.7488    0.0000 C   0  0
   -1.2990    0.7500    0.0000 C   0  0  1  0  0  0
   -2.5981    1.5000    0.0000 O   0  0
   -1.2990   -0.7500    0.0000 C   0  0
    0.0000   -1.5000    0.0000 C   0  0  2  0  0  0
    0.0000   -3.0000    0.0000 C   0  0
    1.2990   -3.7500    0.0000 C   0  0
    2.5981   -3.0000    0.0000 C   0  0  2  0  0  0
    2.5981   -1.5000    0.0000 C   0  0  2  0  0  0
    3.8971   -0.7500    0.0000 C   0  0
    5.1962   -1.5000    0.0000 C   0  0
    5.1962   -3.0000    0.0000 C   0  0  2  0  0  0
    6.5611   -2.3779    0.0000 C   0  0
    6.3238   -3.9802    0.0000 C   0  0  1  0  0  0
    7.7872   -3.6508    0.0000 O   0  0
    5.7224   -5.3544    0.0000 C   0  0
    4.2297   -5.2071    0.0000 C   0  0
    3.8971   -3.7500    0.0000 C   0  0  1  0  0  0
  2  1  1  1
  2  3  1  0
  3  4  1  0
  4  5  1  1
  5  6  1  0
  6  7  1  0
  7  8  1  0
  8  9  1  0
  9 10  2  0
 11  9  1  1
 11 12  1  0
 12 13  1  0
 13 14  1  0
 14 15  1  0
 15 11  1  0
 15 16  1  0
 16 17  2  0
 16 18  1  0
 18 19  2  0
 19 20  1  0
 20 21  2  0
 21 22  1  0
 22 23  2  0
 23 24  1  0
 24 25  2  0
 25 26  1  0
 26 27  2  0
 27 18  1  0
 27 22  1  0
  8 28  1  0
 28 29  1  0
 29  5  1  0
  4 30  1  0
 30 31  1  6
 30 32  1  0
 33 32  1  1
 33  2  1  0
 33 34  1  0
 34 35  1  0
 36 35  1  6
 36 37  1  0
 37  2  1  0
 37 38  1  1
 38 39  1  0
 39 40  1  0
 40 41  1  1
 40 42  1  0
 42 43  1  1
 42 44  1  0
 44 45  1  0
 46 45  1  1
 46 36  1  0
 46 40  1  0
M  END
> <assay_chembl_id>
CHEMBL3382596

> <assay_description>
Antiproliferative activity against human LNCAP cells assessed as reduction in cell growth after 24 hrs by MTS assay

> <document_journal>
Bioorg Med Chem

> <molecule_chembl_id>
CHEMBL3344114

> <standard_value>
300

> <IC50_uM>
0.3

> <Activity>
Yes

> <Canonical_Smiles>
C[C@]12C[C@H](N3CCN(C(=O)[C@@H]4CCCN4C(=O)c4cccc5ccccc45)CC3)[C@@H](O)C[C@@H]1CC[C@@H]1[C@@H]2CC[C@]2(C)[C@@H](O)CC[C@@H]12

$$$$

  SciTegic03142313312D

 46 53  0  0  1  0            999 V2000
    2.5981    0.0000    0.0000 C   0  0
    1.2990   -0.7500    0.0000 C   0  0  2  0  0  0
    1.2990    0.7500    0.0000 C   0  0
    0.0000    1.5000    0.0000 C   0  0  2  0  0  0
    0.0000    3.0008    0.0000 N   0  0
   -1.2979    3.7529    0.0000 C   0  0
   -1.2955    5.2529    0.0000 C   0  0
    0.0047    6.0009    0.0000 N   0  0
    0.0102    7.5017    0.0000 C   0  0
   -1.2864    8.2560    0.0000 O   0  0
    1.3122    8.2482    0.0000 C   0  0  2  0  0  0
    2.6604    7.6203    0.0000 C   0  0
    3.6698    8.7299    0.0000 C   0  0
    2.9263   10.0328    0.0000 C   0  0
    1.4576    9.7283    0.0000 N   0  0
    0.3436   10.7302    0.0000 C   0  0
   -1.0825   10.2654    0.0000 O   0  0
    0.6539   12.1986    0.0000 C   0  0
   -0.4599   13.2033    0.0000 C   0  0
   -0.1468   14.6703    0.0000 C   0  0
   -1.2607   15.6749    0.0000 C   0  0
   -0.9475   17.1419    0.0000 C   0  0
    0.4794   17.6042    0.0000 C   0  0
    1.5933   16.5996    0.0000 C   0  0
    1.2802   15.1326    0.0000 C   0  0
    2.3940   14.1280    0.0000 C   0  0
    2.0809   12.6610    0.0000 N   0  0
    1.3026    5.2488    0.0000 C   0  0
    1.3002    3.7488    0.0000 C   0  0
   -1.2990    0.7500    0.0000 C   0  0  1  0  0  0
   -2.5981    1.5000    0.0000 O   0  0
   -1.2990   -0.7500    0.0000 C   0  0
    0.0000   -1.5000    0.0000 C   0  0  2  0  0  0
    0.0000   -3.0000    0.0000 C   0  0
    1.2990   -3.7500    0.0000 C   0  0
    2.5981   -3.0000    0.0000 C   0  0  2  0  0  0
    2.5981   -1.5000    0.0000 C   0  0  2  0  0  0
    3.8971   -0.7500    0.0000 C   0  0
    5.1962   -1.5000    0.0000 C   0  0
    5.1962   -3.0000    0.0000 C   0  0  2  0  0  0
    6.5611   -2.3779    0.0000 C   0  0
    6.3238   -3.9802    0.0000 C   0  0  1  0  0  0
    7.7872   -3.6508    0.0000 O   0  0
    5.7224   -5.3544    0.0000 C   0  0
    4.2297   -5.2071    0.0000 C   0  0
    3.8971   -3.7500    0.0000 C   0  0  1  0  0  0
  2  1  1  1
  2  3  1  0
  3  4  1  0
  4  5  1  1
  5  6  1  0
  6  7  1  0
  7  8  1  0
  8  9  1  0
  9 10  2  0
 11  9  1  1
 11 12  1  0
 12 13  1  0
 13 14  1  0
 14 15  1  0
 15 11  1  0
 15 16  1  0
 16 17  2  0
 16 18  1  0
 18 19  2  0
 19 20  1  0
 20 21  2  0
 21 22  1  0
 22 23  2  0
 23 24  1  0
 24 25  2  0
 25 20  1  0
 25 26  1  0
 26 27  2  0
 27 18  1  0
  8 28  1  0
 28 29  1  0
 29  5  1  0
  4 30  1  0
 30 31  1  6
 30 32  1  0
 33 32  1  1
 33  2  1  0
 33 34  1  0
 34 35  1  0
 36 35  1  6
 36 37  1  0
 37  2  1  0
 37 38  1  1
 38 39  1  0
 39 40  1  0
 40 41  1  1
 40 42  1  0
 42 43  1  1
 42 44  1  0
 44 45  1  0
 46 45  1  1
 46 36  1  0
 46 40  1  0
M  END
> <assay_chembl_id>
CHEMBL3382596

> <assay_description>
Antiproliferative activity against human LNCAP cells assessed as reduction in cell growth after 24 hrs by MTS assay

> <document_journal>
Bioorg Med Chem

> <molecule_chembl_id>
CHEMBL3344111

> <standard_value>
70

> <IC50_uM>
0.07

> <Activity>
Yes

> <Canonical_Smiles>
C[C@]12C[C@H](N3CCN(C(=O)[C@@H]4CCCN4C(=O)c4cc5ccccc5cn4)CC3)[C@@H](O)C[C@@H]1CC[C@@H]1[C@@H]2CC[C@]2(C)[C@@H](O)CC[C@@H]12

$$$$

  SciTegic03142313312D

 46 53  0  0  1  0            999 V2000
    2.5981    0.0000    0.0000 C   0  0
    1.2990   -0.7500    0.0000 C   0  0  2  0  0  0
    1.2990    0.7500    0.0000 C   0  0
    0.0000    1.5000    0.0000 C   0  0  2  0  0  0
    0.0000    3.0008    0.0000 N   0  0
   -1.2979    3.7529    0.0000 C   0  0
   -1.2955    5.2529    0.0000 C   0  0
    0.0047    6.0009    0.0000 N   0  0
    0.0102    7.5017    0.0000 C   0  0
   -1.2864    8.2560    0.0000 O   0  0
    1.3122    8.2482    0.0000 C   0  0  2  0  0  0
    2.6604    7.6203    0.0000 C   0  0
    3.6698    8.7299    0.0000 C   0  0
    2.9263   10.0328    0.0000 C   0  0
    1.4576    9.7283    0.0000 N   0  0
    0.3436   10.7302    0.0000 C   0  0
   -1.0825   10.2654    0.0000 O   0  0
    0.6539   12.1986    0.0000 C   0  0
   -0.4599   13.2033    0.0000 C   0  0
   -0.1468   14.6703    0.0000 C   0  0
    1.2802   15.1326    0.0000 C   0  0
    1.5933   16.5996    0.0000 C   0  0
    3.0203   17.0619    0.0000 C   0  0
    4.1341   16.0572    0.0000 C   0  0
    3.8210   14.5903    0.0000 C   0  0
    2.3940   14.1280    0.0000 C   0  0
    2.0809   12.6610    0.0000 N   0  0
    1.3026    5.2488    0.0000 C   0  0
    1.3002    3.7488    0.0000 C   0  0
   -1.2990    0.7500    0.0000 C   0  0  1  0  0  0
   -2.5981    1.5000    0.0000 O   0  0
   -1.2990   -0.7500    0.0000 C   0  0
    0.0000   -1.5000    0.0000 C   0  0  2  0  0  0
    0.0000   -3.0000    0.0000 C   0  0
    1.2990   -3.7500    0.0000 C   0  0
    2.5981   -3.0000    0.0000 C   0  0  2  0  0  0
    2.5981   -1.5000    0.0000 C   0  0  2  0  0  0
    3.8971   -0.7500    0.0000 C   0  0
    5.1962   -1.5000    0.0000 C   0  0
    5.1962   -3.0000    0.0000 C   0  0  2  0  0  0
    6.5611   -2.3779    0.0000 C   0  0
    6.3238   -3.9802    0.0000 C   0  0  1  0  0  0
    7.7872   -3.6508    0.0000 O   0  0
    5.7224   -5.3544    0.0000 C   0  0
    4.2297   -5.2071    0.0000 C   0  0
    3.8971   -3.7500    0.0000 C   0  0  1  0  0  0
  2  1  1  1
  2  3  1  0
  3  4  1  0
  4  5  1  1
  5  6  1  0
  6  7  1  0
  7  8  1  0
  8  9  1  0
  9 10  2  0
 11  9  1  1
 11 12  1  0
 12 13  1  0
 13 14  1  0
 14 15  1  0
 15 11  1  0
 15 16  1  0
 16 17  2  0
 16 18  1  0
 18 19  2  0
 19 20  1  0
 20 21  2  0
 21 22  1  0
 22 23  2  0
 23 24  1  0
 24 25  2  0
 25 26  1  0
 26 21  1  0
 26 27  2  0
 27 18  1  0
  8 28  1  0
 28 29  1  0
 29  5  1  0
  4 30  1  0
 30 31  1  6
 30 32  1  0
 33 32  1  1
 33  2  1  0
 33 34  1  0
 34 35  1  0
 36 35  1  6
 36 37  1  0
 37  2  1  0
 37 38  1  1
 38 39  1  0
 39 40  1  0
 40 41  1  1
 40 42  1  0
 42 43  1  1
 42 44  1  0
 44 45  1  0
 46 45  1  1
 46 36  1  0
 46 40  1  0
M  END
> <assay_chembl_id>
CHEMBL3382596

> <assay_description>
Antiproliferative activity against human LNCAP cells assessed as reduction in cell growth after 24 hrs by MTS assay

> <document_journal>
Bioorg Med Chem

> <molecule_chembl_id>
CHEMBL3344109

> <standard_value>
40

> <IC50_uM>
0.04

> <Activity>
Yes

> <Canonical_Smiles>
C[C@]12C[C@H](N3CCN(C(=O)[C@@H]4CCCN4C(=O)c4ccc5ccccc5n4)CC3)[C@@H](O)C[C@@H]1CC[C@@H]1[C@@H]2CC[C@]2(C)[C@@H](O)CC[C@@H]12

$$$$

  SciTegic03142313312D

 31 33  0  0  0  0            999 V2000
    5.1983   -3.0012    0.0000 C   0  0
    5.1988   -1.5012    0.0000 C   0  0  3  0  0  0
    4.3327   -2.0011    0.0000 O   0  0
    3.8990   -0.7508    0.0000 C   0  0
    2.5988   -1.5004    0.0000 S   0  0
    2.5983   -3.0004    0.0000 O   0  0
    3.4646   -2.0008    0.0000 O   0  0
    1.2990   -0.7500    0.0000 C   0  0
    1.2990    0.7500    0.0000 C   0  0
    0.0000    1.5000    0.0000 C   0  0
   -1.2990    0.7500    0.0000 C   0  0
   -2.5981    1.5000    0.0000 F   0  0
   -1.2990   -0.7500    0.0000 C   0  0
    0.0000   -1.5000    0.0000 C   0  0
    6.4990   -0.7516    0.0000 C   0  0
    7.8499   -1.3736    0.0000 C   0  0
    8.8543   -0.2595    0.0000 N   0  0
   10.3468   -0.4173    0.0000 C   0  0
   11.0543   -1.7343    0.0000 C   0  0
   12.5536   -1.7794    0.0000 C   0  0
   13.3423   -0.5034    0.0000 C   0  0
   14.8424   -0.5485    0.0000 C   0  0
   16.3417   -0.5935    0.0000 N   0  0
   12.6316    0.8175    0.0000 C   0  0
   13.4207    2.0942    0.0000 C   0  0
   14.9201    2.0501    0.0000 F   0  0
   12.7096    3.4149    0.0000 F   0  0
   14.2088    3.3705    0.0000 F   0  0
   11.1323    0.8626    0.0000 C   0  0
    8.1051    1.0400    0.0000 N   0  0
    6.6377    0.7291    0.0000 N   0  0
  2  1  1  4
  2  3  1  0
  2  4  1  0
  4  5  1  0
  5  6  2  0
  5  7  2  0
  5  8  1  0
  8  9  2  0
  9 10  1  0
 10 11  2  0
 11 12  1  0
 11 13  1  0
 13 14  2  0
 14  8  1  0
  2 15  1  0
 15 16  2  0
 16 17  1  0
 17 18  1  0
 18 19  2  0
 19 20  1  0
 20 21  2  0
 21 22  1  0
 22 23  3  0
 21 24  1  0
 24 25  1  0
 25 26  1  0
 25 27  1  0
 25 28  1  0
 24 29  2  0
 29 18  1  0
 17 30  1  0
 30 31  2  0
 31 15  1  0
M  END
> <assay_chembl_id>
CHEMBL3375837

> <assay_description>
Growth inhibition of human LNCAP cells

> <document_journal>
Bioorg Med Chem Lett

> <molecule_chembl_id>
CHEMBL3335797

> <standard_value>
45000

> <IC50_uM>
45

> <Activity>
No

> <Canonical_Smiles>
CC(O)(CS(=O)(=O)c1ccc(F)cc1)c1cn(-c2ccc(C#N)c(C(F)(F)F)c2)nn1

$$$$

  SciTegic03142313312D

 32 34  0  0  0  0            999 V2000
    5.1983   -3.0012    0.0000 C   0  0
    5.1988   -1.5012    0.0000 C   0  0  3  0  0  0
    4.3327   -2.0011    0.0000 O   0  0
    3.8990   -0.7508    0.0000 C   0  0
    2.5988   -1.5004    0.0000 S   0  0
    2.5983   -3.0004    0.0000 O   0  0
    3.4646   -2.0008    0.0000 O   0  0
    1.2990   -0.7500    0.0000 C   0  0
    1.2990    0.7500    0.0000 C   0  0
    0.0000    1.5000    0.0000 C   0  0
   -1.2990    0.7500    0.0000 C   0  0
   -2.5981    1.5000    0.0000 F   0  0
   -1.2990   -0.7500    0.0000 C   0  0
    0.0000   -1.5000    0.0000 C   0  0
    6.4990   -0.7516    0.0000 C   0  0
    7.8499   -1.3736    0.0000 C   0  0
    8.8543   -0.2595    0.0000 N   0  0
   10.3468   -0.4173    0.0000 C   0  0
   11.0543   -1.7343    0.0000 C   0  0
   12.5536   -1.7794    0.0000 C   0  0
   13.3423   -0.5034    0.0000 C   0  0
   14.8423   -0.5516    0.0000 N   0  3
   15.5511   -1.8736    0.0000 O   0  0
   15.6332    0.7230    0.0000 O   0  5
   12.6316    0.8175    0.0000 C   0  0
   13.4207    2.0942    0.0000 C   0  0
   14.9201    2.0501    0.0000 F   0  0
   12.7096    3.4149    0.0000 F   0  0
   14.2088    3.3705    0.0000 F   0  0
   11.1323    0.8626    0.0000 C   0  0
    8.1051    1.0400    0.0000 N   0  0
    6.6377    0.7291    0.0000 N   0  0
  2  1  1  4
  2  3  1  0
  2  4  1  0
  4  5  1  0
  5  6  2  0
  5  7  2  0
  5  8  1  0
  8  9  2  0
  9 10  1  0
 10 11  2  0
 11 12  1  0
 11 13  1  0
 13 14  2  0
 14  8  1  0
  2 15  1  0
 15 16  2  0
 16 17  1  0
 17 18  1  0
 18 19  2  0
 19 20  1  0
 20 21  2  0
 21 22  1  0
 22 23  2  0
 22 24  1  0
 21 25  1  0
 25 26  1  0
 26 27  1  0
 26 28  1  0
 26 29  1  0
 25 30  2  0
 30 18  1  0
 17 31  1  0
 31 32  2  0
 32 15  1  0
M  CHG  2  22   1  24  -1
M  END
> <assay_chembl_id>
CHEMBL3375837

> <assay_description>
Growth inhibition of human LNCAP cells

> <document_journal>
Bioorg Med Chem Lett

> <molecule_chembl_id>
CHEMBL3335798

> <standard_value>
36000

> <IC50_uM>
36

> <Activity>
No

> <Canonical_Smiles>
CC(O)(CS(=O)(=O)c1ccc(F)cc1)c1cn(-c2ccc([N+](=O)[O-])c(C(F)(F)F)c2)nn1

$$$$

  SciTegic03142313312D

 31 33  0  0  0  0            999 V2000
    5.1983   -3.0012    0.0000 C   0  0
    5.1988   -1.5012    0.0000 C   0  0  3  0  0  0
    4.3327   -2.0011    0.0000 O   0  0
    3.8990   -0.7508    0.0000 C   0  0
    2.5988   -1.5004    0.0000 S   0  0
    2.5983   -3.0004    0.0000 O   0  0
    3.4646   -2.0008    0.0000 O   0  0
    1.2990   -0.7500    0.0000 C   0  0
    1.2990    0.7500    0.0000 C   0  0
    0.0000    1.5000    0.0000 C   0  0
   -1.2990    0.7500    0.0000 C   0  0
   -1.2990   -0.7500    0.0000 C   0  0
    0.0000   -1.5000    0.0000 C   0  0
    6.4990   -0.7516    0.0000 C   0  0
    7.8499   -1.3736    0.0000 C   0  0
    8.8543   -0.2595    0.0000 N   0  0
   10.3468   -0.4173    0.0000 C   0  0
   11.0543   -1.7343    0.0000 C   0  0
   12.5536   -1.7794    0.0000 C   0  0
   13.3423   -0.5034    0.0000 C   0  0
   14.8423   -0.5516    0.0000 N   0  3
   15.5511   -1.8736    0.0000 O   0  0
   15.6332    0.7230    0.0000 O   0  5
   12.6316    0.8175    0.0000 C   0  0
   13.4207    2.0942    0.0000 C   0  0
   14.9201    2.0501    0.0000 F   0  0
   12.7096    3.4149    0.0000 F   0  0
   14.2088    3.3705    0.0000 F   0  0
   11.1323    0.8626    0.0000 C   0  0
    8.1051    1.0400    0.0000 N   0  0
    6.6377    0.7291    0.0000 N   0  0
  2  1  1  4
  2  3  1  0
  2  4  1  0
  4  5  1  0
  5  6  2  0
  5  7  2  0
  5  8  1  0
  8  9  2  0
  9 10  1  0
 10 11  2  0
 11 12  1  0
 12 13  2  0
 13  8  1  0
  2 14  1  0
 14 15  2  0
 15 16  1  0
 16 17  1  0
 17 18  2  0
 18 19  1  0
 19 20  2  0
 20 21  1  0
 21 22  2  0
 21 23  1  0
 20 24  1  0
 24 25  1  0
 25 26  1  0
 25 27  1  0
 25 28  1  0
 24 29  2  0
 29 17  1  0
 16 30  1  0
 30 31  2  0
 31 14  1  0
M  CHG  2  21   1  23  -1
M  END
> <assay_chembl_id>
CHEMBL3375837

> <assay_description>
Growth inhibition of human LNCAP cells

> <document_journal>
Bioorg Med Chem Lett

> <molecule_chembl_id>
CHEMBL3335802

> <standard_value>
34000

> <IC50_uM>
34

> <Activity>
No

> <Canonical_Smiles>
CC(O)(CS(=O)(=O)c1ccccc1)c1cn(-c2ccc([N+](=O)[O-])c(C(F)(F)F)c2)nn1

$$$$

  SciTegic03142313312D

 37 39  0  0  1  0            999 V2000
    2.7471    1.9532    0.0000 C   0  0
    3.7679    0.8541    0.0000 C   0  0
    5.2311    1.1879    0.0000 C   0  0
    6.2509    0.0878    0.0000 C   0  0
    5.6747    2.6217    0.0000 C   0  0
    4.6549    3.7217    0.0000 O   0  0
    7.1379    2.9554    0.0000 O   0  0
    7.5807    4.3867    0.0000 C   0  0  2  0  0  0
    9.0016    4.8675    0.0000 C   0  0
    8.9836    6.3677    0.0000 C   0  0  1  0  0  0
    7.5515    6.8140    0.0000 C   0  0
    6.6844    5.5895    0.0000 C   0  0
    5.1845    5.5713    0.0000 C   0  0
    7.0075    8.2119    0.0000 C   0  0  2  0  0  0
    5.5468    8.5410    0.0000 O   0  0
    5.4003   10.0338    0.0000 C   0  0
    4.1064   10.7927    0.0000 O   0  0
    6.7747   10.6345    0.0000 C   0  0  1  0  0  0
    7.7332   10.9197    0.0000 C   0  0
    5.6556   11.6333    0.0000 O   0  0
    7.7612    9.5087    0.0000 C   0  0  2  0  0  0
    8.1062   10.4473    0.0000 O   0  0
    9.2451    9.7280    0.0000 C   0  0  1  0  0  0
    9.6892   11.1637    0.0000 O   0  0
    8.6700   12.2654    0.0000 C   0  0
    7.2073   11.9333    0.0000 O   0  0
    9.1136   13.6991    0.0000 C   0  0  1  0  0  0
   10.5764   14.0312    0.0000 C   0  0
    8.0944   14.8008    0.0000 C   0  0
    8.5377   16.2338    0.0000 C   0  0
   10.3417    8.7046    0.0000 C   0  0
   10.2253    7.2091    0.0000 C   0  0  1  0  0  0
   11.5027    7.9955    0.0000 C   0  0
   10.1751    5.7348    0.0000 O   0  0
   11.4228    4.9007    0.0000 C   0  0
   12.7681    5.5643    0.0000 C   0  0
   11.3254    3.4039    0.0000 O   0  0
  1  2  1  0
  2  3  2  0
  3  4  1  0
  3  5  1  0
  5  6  2  0
  5  7  1  0
  8  7  1  1
  8  9  1  0
 10  9  1  1
 10 11  1  0
 11 12  2  0
 12  8  1  0
 12 13  1  0
 11 14  1  0
 14 15  1  6
 15 16  1  0
 16 17  2  0
 16 18  1  0
 18 19  1  6
 18 20  1  0
 18 21  1  0
 21 14  1  0
 21 22  1  6
 21 23  1  0
 23 24  1  1
 24 25  1  0
 25 26  2  0
 25 27  1  0
 27 28  1  6
 27 29  1  0
 29 30  1  0
 23 31  1  0
 31 32  1  0
 32 10  1  0
 32 33  1  1
 32 34  1  0
 34 35  1  0
 35 36  1  0
 35 37  2  0
M  END
> <assay_chembl_id>
CHEMBL3384506

> <assay_description>
Cytotoxicity against human LNCAP cells after 48 hrs by WST-1 assay

> <document_journal>
J Med Chem

> <molecule_chembl_id>
CHEMBL3343188

> <standard_value>
500

> <IC50_uM>
0.5

> <Activity>
Yes

> <Canonical_Smiles>
C/C=C(/C)C(=O)O[C@@H]1C[C@H]2C(=C1C)[C@@H]1OC(=O)[C@@](C)(O)[C@@]1(O)[C@@H](OC(=O)[C@@H](C)CC)C[C@]2(C)OC(C)=O

$$$$

  SciTegic03142313312D

 74 81  0  0  1  0            999 V2000
    2.7471    1.9532    0.0000 C   0  0
    3.7679    0.8541    0.0000 C   0  0
    5.2311    1.1879    0.0000 C   0  0
    6.2509    0.0878    0.0000 C   0  0
    5.6747    2.6217    0.0000 C   0  0
    4.6549    3.7217    0.0000 O   0  0
    7.1379    2.9554    0.0000 O   0  0
    7.5807    4.3867    0.0000 C   0  0  2  0  0  0
    9.0016    4.8675    0.0000 C   0  0
    8.9836    6.3677    0.0000 C   0  0  1  0  0  0
    7.5515    6.8140    0.0000 C   0  0
    6.6844    5.5895    0.0000 C   0  0
    5.1845    5.5713    0.0000 C   0  0
    7.0075    8.2119    0.0000 C   0  0  2  0  0  0
    5.5468    8.5410    0.0000 O   0  0
    5.4003   10.0338    0.0000 C   0  0
    4.1064   10.7927    0.0000 O   0  0
    6.7747   10.6345    0.0000 C   0  0  1  0  0  0
    7.7332   10.9197    0.0000 C   0  0
    5.6556   11.6333    0.0000 O   0  0
    7.7612    9.5087    0.0000 C   0  0  2  0  0  0
    8.1062   10.4473    0.0000 O   0  0
    9.2451    9.7280    0.0000 C   0  0  1  0  0  0
    9.6892   11.1637    0.0000 O   0  0
    8.6700   12.2654    0.0000 C   0  0
    7.2073   11.9333    0.0000 O   0  0
    9.1136   13.6991    0.0000 C   0  0
    8.0944   14.8008    0.0000 C   0  0
    8.5380   16.2346    0.0000 O   0  0
    7.5188   17.3363    0.0000 C   0  0
    7.9623   18.7701    0.0000 C   0  0
    6.9431   19.8717    0.0000 O   0  0
    7.3867   21.3055    0.0000 C   0  0
    6.3675   22.4072    0.0000 C   0  0
    6.8111   23.8410    0.0000 O   0  0
    5.7919   24.9426    0.0000 C   0  0
    6.2354   26.3764    0.0000 C   0  0
    5.2162   27.4781    0.0000 O   0  0
    5.6598   28.9119    0.0000 C   0  0
    4.6406   30.0136    0.0000 C   0  0
    5.0842   31.4473    0.0000 N   0  0
    4.1814   32.6293    0.0000 C   0  0
    5.0484   33.8533    0.0000 C   0  0
    4.5712   35.2736    0.0000 C   0  0
    5.5635   36.3995    0.0000 O   0  0
    5.0855   37.8222    0.0000 C   0  0
    6.0756   38.9490    0.0000 C   0  0
    5.5950   40.3699    0.0000 C   0  0
    4.1241   40.6641    0.0000 C   0  0
    3.6432   42.0857    0.0000 C   0  0
    4.6316   43.2141    0.0000 C   0  0
    6.1306   43.2342    0.0000 C   0  0
    6.5747   44.6670    0.0000 C   0  0
    5.3493   45.5321    0.0000 C   0  0
    4.1487   44.6342    0.0000 N   0  3
    2.6773   44.9261    0.0000 B   0  5
    3.6921   46.0307    0.0000 F   0  0
    1.1995   45.1833    0.0000 F   0  0
    1.6889   43.7978    0.0000 N   0  0
    0.1898   43.7776    0.0000 C   0  0
   -0.2542   42.3448    0.0000 C   0  0
    0.9712   41.4798    0.0000 C   0  0
    2.1718   42.3776    0.0000 C   0  0
    3.1339   39.5373    0.0000 C   0  0
    3.6145   38.1164    0.0000 C   0  0
    6.4804   33.4071    0.0000 N   0  0
    6.4986   31.9072    0.0000 N   0  0
   10.3417    8.7046    0.0000 C   0  0
   10.2253    7.2091    0.0000 C   0  0  1  0  0  0
   11.5027    7.9955    0.0000 C   0  0
   10.1751    5.7348    0.0000 O   0  0
   11.4228    4.9007    0.0000 C   0  0
   12.7681    5.5643    0.0000 C   0  0
   11.3254    3.4039    0.0000 O   0  0
  1  2  1  0
  2  3  2  0
  3  4  1  0
  3  5  1  0
  5  6  2  0
  5  7  1  0
  8  7  1  1
  8  9  1  0
 10  9  1  1
 10 11  1  0
 11 12  2  0
 12  8  1  0
 12 13  1  0
 11 14  1  0
 14 15  1  6
 15 16  1  0
 16 17  2  0
 16 18  1  0
 18 19  1  6
 18 20  1  0
 18 21  1  0
 21 14  1  0
 21 22  1  6
 21 23  1  0
 23 24  1  1
 24 25  1  0
 25 26  2  0
 25 27  1  0
 27 28  1  0
 28 29  1  0
 29 30  1  0
 30 31  1  0
 31 32  1  0
 32 33  1  0
 33 34  1  0
 34 35  1  0
 35 36  1  0
 36 37  1  0
 37 38  1  0
 38 39  1  0
 39 40  1  0
 40 41  1  0
 41 42  1  0
 42 43  2  0
 43 44  1  0
 44 45  1  0
 45 46  1  0
 46 47  2  0
 47 48  1  0
 48 49  2  0
 49 50  1  0
 50 51  2  0
 51 52  1  0
 52 53  2  0
 53 54  1  0
 54 55  2  0
 55 51  1  0
 55 56  1  0
 56 57  1  0
 56 58  1  0
 56 59  1  0
 59 60  1  0
 60 61  2  0
 61 62  1  0
 62 63  2  0
 63 59  1  0
 63 50  1  0
 49 64  1  0
 64 65  2  0
 65 46  1  0
 43 66  1  0
 66 67  2  0
 67 41  1  0
 23 68  1  0
 68 69  1  0
 69 10  1  0
 69 70  1  1
 69 71  1  0
 71 72  1  0
 72 73  1  0
 72 74  2  0
M  CHG  2  55   1  56  -1
M  END
> <assay_chembl_id>
CHEMBL3384506

> <assay_description>
Cytotoxicity against human LNCAP cells after 48 hrs by WST-1 assay

> <document_journal>
J Med Chem

> <molecule_chembl_id>
CHEMBL3343191

> <standard_value>
400

> <IC50_uM>
0.4

> <Activity>
Yes

> <Canonical_Smiles>
C/C=C(/C)C(=O)O[C@@H]1C[C@H]2C(=C1C)[C@@H]1OC(=O)[C@@](C)(O)[C@@]1(O)[C@@H](OC(=O)CCOCCOCCOCCOCCn1cc(COc3ccc(C4=C5C=CC=[N+]5[B-](F)(F)n5cccc54)cc3)nn1)C[C@]2(C)OC(C)=O

$$$$

  SciTegic03142313312D

 38 42  0  0  1  0            999 V2000
   -4.9848   -3.1286    0.0000 C   0  0
   -3.6489   -3.8109    0.0000 C   0  0
   -3.5723   -5.3090    0.0000 C   0  0
   -4.9078   -4.6265    0.0000 C   0  0
   -2.3889   -2.9955    0.0000 C   0  0
   -1.0545   -3.6773    0.0000 C   0  0  2  0  0  0
   -0.8588   -5.1645    0.0000 N   0  0
    0.6160   -5.4379    0.0000 C   0  0  1  0  0  0
    1.2581   -6.7916    0.0000 C   0  0
    0.4055   -8.0257    0.0000 O   0  0
    2.7540   -6.9135    0.0000 N   0  0
    3.3972   -8.2695    0.0000 C   0  0  1  0  0  0
    4.8921   -8.3935    0.0000 C   0  0
    5.5322   -9.7501    0.0000 C   0  0
    4.6775  -10.9827    0.0000 C   0  0  2  0  0  0
    5.3176  -12.3393    0.0000 O   0  0
    3.1826  -10.8588    0.0000 C   0  0
    2.5425   -9.5022    0.0000 C   0  0
    1.3318   -4.1197    0.0000 C   0  0  2  0  0  0
    2.8229   -3.9498    0.0000 C   0  0
    3.6348   -5.2128    0.0000 C   0  0
    5.1329   -5.1373    0.0000 C   0  0
    5.8166   -3.8022    0.0000 C   0  0
    5.0021   -2.5425    0.0000 C   0  0
    5.6858   -1.2074    0.0000 Cl  0  0
    3.5040   -2.6180    0.0000 C   0  0
    2.9608   -1.7784    0.0000 F   0  0
    0.3114   -2.9665    0.0000 C   0  0  2  0  0  0
    1.8032   -3.1233    0.0000 C   0  0
    2.5532   -4.4223    0.0000 O   0  0
    2.4133   -1.7530    0.0000 N   0  0
    1.2990   -0.7500    0.0000 C   0  0
    1.2990    0.7500    0.0000 C   0  0
    0.0000    1.5000    0.0000 C   0  0
    0.0000    3.0000    0.0000 Cl  0  0
   -1.2990    0.7500    0.0000 C   0  0
   -1.2990   -0.7500    0.0000 C   0  0
    0.0000   -1.5000    0.0000 C   0  0
  1  2  1  0
  2  3  1  0
  2  4  1  0
  2  5  1  0
  6  5  1  1
  6  7  1  0
  7  8  1  0
  8  9  1  6
  9 10  2  0
  9 11  1  0
 12 11  1  1
 12 13  1  0
 13 14  1  0
 14 15  1  0
 15 16  1  6
 15 17  1  0
 17 18  1  0
 18 12  1  0
  8 19  1  0
 19 20  1  1
 20 21  2  0
 21 22  1  0
 22 23  2  0
 23 24  1  0
 24 25  1  0
 24 26  2  0
 26 20  1  0
 26 27  1  0
 19 28  1  0
 28  6  1  0
 28 29  1  1
 29 30  2  0
 29 31  1  0
 31 32  1  0
 32 33  2  0
 33 34  1  0
 34 35  1  0
 34 36  2  0
 36 37  1  0
 37 38  2  0
 38 32  1  0
 38 28  1  0
M  END
> <assay_chembl_id>
CHEMBL3413429

> <assay_description>
Cytotoxicity against human LNCAP cells

> <document_journal>
J Med Chem

> <molecule_chembl_id>
CHEMBL2381408

> <standard_value>
100

> <IC50_uM>
0.1

> <Activity>
Yes

> <Canonical_Smiles>
CC(C)(C)C[C@@H]1N[C@@H](C(=O)N[C@H]2CC[C@H](O)CC2)[C@H](c2cccc(Cl)c2F)[C@]12C(=O)Nc1cc(Cl)ccc12

$$$$

  SciTegic03142313312D

 32 35  0  0  0  0            999 V2000
   -3.4608  -20.7753    0.0000 C   0  0
   -3.9198  -19.3473    0.0000 O   0  0
   -5.3866  -19.0296    0.0000 C   0  0
   -6.3923  -20.1425    0.0000 C   0  0
   -7.8589  -19.8281    0.0000 C   0  0
   -8.3200  -18.4007    0.0000 C   0  0
   -7.3143  -17.2878    0.0000 C   0  0
   -5.8476  -17.6021    0.0000 C   0  0
   -4.8432  -16.4870    0.0000 N   0  0
   -3.3760  -16.7991    0.0000 C   0  0
   -2.3722  -15.6845    0.0000 C   0  0
   -2.8354  -14.2578    0.0000 N   0  0
   -1.8332  -13.1406    0.0000 C   0  0
   -2.2988  -11.7138    0.0000 C   0  0
   -1.2966  -10.5966    0.0000 C   0  0
   -1.7622   -9.1698    0.0000 N   0  0
   -0.7600   -8.0526    0.0000 C   0  0
    0.7077   -8.3622    0.0000 O   0  0
   -1.2256   -6.6258    0.0000 C   0  0
   -0.2234   -5.5086    0.0000 C   0  0
   -0.6890   -4.0818    0.0000 C   0  0
    0.3114   -2.9665    0.0000 C   0  0
    1.8032   -3.1233    0.0000 C   0  0
    2.4133   -1.7530    0.0000 N   0  0
    1.2990   -0.7500    0.0000 C   0  0
    1.2990    0.7500    0.0000 C   0  0
    0.0000    1.5000    0.0000 C   0  0
   -1.2990    0.7500    0.0000 C   0  0
   -1.2990   -0.7500    0.0000 C   0  0
    0.0000   -1.5000    0.0000 C   0  0
   -4.3026  -13.9458    0.0000 C   0  0
   -5.3065  -15.0603    0.0000 C   0  0
  1  2  1  0
  2  3  1  0
  3  4  2  0
  4  5  1  0
  5  6  2  0
  6  7  1  0
  7  8  2  0
  8  3  1  0
  8  9  1  0
  9 10  1  0
 10 11  1  0
 11 12  1  0
 12 13  1  0
 13 14  1  0
 14 15  1  0
 15 16  1  0
 16 17  1  0
 17 18  2  0
 17 19  1  0
 19 20  1  0
 20 21  1  0
 21 22  1  0
 22 23  2  0
 23 24  1  0
 24 25  1  0
 25 26  2  0
 26 27  1  0
 27 28  2  0
 28 29  1  0
 29 30  2  0
 30 22  1  0
 30 25  1  0
 12 31  1  0
 31 32  1  0
 32  9  1  0
M  END
> <assay_chembl_id>
CHEMBL3421405

> <assay_description>
Cytotoxicity against human LNCAP cells after 48 hrs by WST-8 assay

> <document_journal>
Eur J Med Chem

> <molecule_chembl_id>
CHEMBL3415014

> <standard_value>
52310

> <IC50_uM>
52.31

> <Activity>
No

> <Canonical_Smiles>
COc1ccccc1N1CCN(CCCNC(=O)CCCc2c[nH]c3ccccc23)CC1

$$$$

  SciTegic03142313312D

 30 33  0  0  0  0            999 V2000
    2.5099  -17.4285    0.0000 C   0  0
    1.7684  -16.1246    0.0000 O   0  0
    0.2676  -16.1139    0.0000 C   0  0
   -0.4890  -17.4091    0.0000 C   0  0
   -1.9889  -17.4015    0.0000 C   0  0
   -2.7324  -16.0987    0.0000 C   0  0
   -1.9758  -14.8035    0.0000 C   0  0
   -0.4758  -14.8110    0.0000 C   0  0
    0.2791  -13.5139    0.0000 N   0  0
    1.7791  -13.5191    0.0000 C   0  0
    2.5336  -12.2227    0.0000 C   0  0
    1.7882  -10.9210    0.0000 N   0  0
    2.5405   -9.6223    0.0000 C   0  0
    1.7928   -8.3210    0.0000 C   0  0
    2.5451   -7.0223    0.0000 C   0  0
    1.7974   -5.7210    0.0000 N   0  0
    2.5497   -4.4224    0.0000 C   0  0
    4.0497   -4.4250    0.0000 O   0  0
    1.8032   -3.1233    0.0000 C   0  0
    2.4133   -1.7530    0.0000 C   0  0
    1.2990   -0.7500    0.0000 C   0  0
    1.2990    0.7500    0.0000 C   0  0
    0.0000    1.5000    0.0000 C   0  0
   -1.2990    0.7500    0.0000 C   0  0
   -2.5981    1.5000    0.0000 Br  0  0
   -1.2990   -0.7500    0.0000 C   0  0
    0.0000   -1.5000    0.0000 C   0  0
    0.3114   -2.9665    0.0000 N   0  0
    0.2882  -10.9158    0.0000 C   0  0
   -0.4663  -12.2123    0.0000 C   0  0
  1  2  1  0
  2  3  1  0
  3  4  2  0
  4  5  1  0
  5  6  2  0
  6  7  1  0
  7  8  2  0
  8  3  1  0
  8  9  1  0
  9 10  1  0
 10 11  1  0
 11 12  1  0
 12 13  1  0
 13 14  1  0
 14 15  1  0
 15 16  1  0
 16 17  1  0
 17 18  2  0
 17 19  1  0
 19 20  2  0
 20 21  1  0
 21 22  2  0
 22 23  1  0
 23 24  2  0
 24 25  1  0
 24 26  1  0
 26 27  2  0
 27 21  1  0
 27 28  1  0
 28 19  1  0
 12 29  1  0
 29 30  1  0
 30  9  1  0
M  END
> <assay_chembl_id>
CHEMBL3421405

> <assay_description>
Cytotoxicity against human LNCAP cells after 48 hrs by WST-8 assay

> <document_journal>
Eur J Med Chem

> <molecule_chembl_id>
CHEMBL3415017

> <standard_value>
26730

> <IC50_uM>
26.73

> <Activity>
No

> <Canonical_Smiles>
COc1ccccc1N1CCN(CCCNC(=O)c2cc3ccc(Br)cc3[nH]2)CC1

$$$$

  SciTegic03142313312D

 30 33  0  0  0  0            999 V2000
    2.5099  -17.4285    0.0000 C   0  0
    1.7684  -16.1246    0.0000 O   0  0
    0.2676  -16.1139    0.0000 C   0  0
   -0.4890  -17.4091    0.0000 C   0  0
   -1.9889  -17.4015    0.0000 C   0  0
   -2.7324  -16.0987    0.0000 C   0  0
   -1.9758  -14.8035    0.0000 C   0  0
   -0.4758  -14.8110    0.0000 C   0  0
    0.2791  -13.5139    0.0000 N   0  0
    1.7791  -13.5191    0.0000 C   0  0
    2.5336  -12.2227    0.0000 C   0  0
    1.7882  -10.9210    0.0000 N   0  0
    2.5405   -9.6223    0.0000 C   0  0
    1.7928   -8.3210    0.0000 C   0  0
    2.5451   -7.0223    0.0000 C   0  0
    1.7974   -5.7210    0.0000 N   0  0
    2.5497   -4.4224    0.0000 C   0  0
    4.0497   -4.4250    0.0000 O   0  0
    1.8032   -3.1233    0.0000 C   0  0
    2.4133   -1.7530    0.0000 C   0  0
    1.2990   -0.7500    0.0000 C   0  0
    1.2990    0.7500    0.0000 C   0  0
    0.0000    1.5000    0.0000 C   0  0
    0.0000    3.0000    0.0000 Cl  0  0
   -1.2990    0.7500    0.0000 C   0  0
   -1.2990   -0.7500    0.0000 C   0  0
    0.0000   -1.5000    0.0000 C   0  0
    0.3114   -2.9665    0.0000 N   0  0
    0.2882  -10.9158    0.0000 C   0  0
   -0.4663  -12.2123    0.0000 C   0  0
  1  2  1  0
  2  3  1  0
  3  4  2  0
  4  5  1  0
  5  6  2  0
  6  7  1  0
  7  8  2  0
  8  3  1  0
  8  9  1  0
  9 10  1  0
 10 11  1  0
 11 12  1  0
 12 13  1  0
 13 14  1  0
 14 15  1  0
 15 16  1  0
 16 17  1  0
 17 18  2  0
 17 19  1  0
 19 20  2  0
 20 21  1  0
 21 22  2  0
 22 23  1  0
 23 24  1  0
 23 25  2  0
 25 26  1  0
 26 27  2  0
 27 21  1  0
 27 28  1  0
 28 19  1  0
 12 29  1  0
 29 30  1  0
 30  9  1  0
M  END
> <assay_chembl_id>
CHEMBL3421405

> <assay_description>
Cytotoxicity against human LNCAP cells after 48 hrs by WST-8 assay

> <document_journal>
Eur J Med Chem

> <molecule_chembl_id>
CHEMBL3415018

> <standard_value>
28440

> <IC50_uM>
28.44

> <Activity>
No

> <Canonical_Smiles>
COc1ccccc1N1CCN(CCCNC(=O)c2cc3cc(Cl)ccc3[nH]2)CC1

$$$$

  SciTegic03142313312D

 36 40  0  0  0  0            999 V2000
   13.8386  -10.8879    0.0000 C   0  0
   13.0802   -9.5938    0.0000 O   0  0
   13.8212   -8.2887    0.0000 C   0  0
   15.3212   -8.2811    0.0000 C   0  0
   16.0646   -6.9783    0.0000 C   0  0
   15.3081   -5.6830    0.0000 C   0  0
   13.8081   -5.6906    0.0000 C   0  0
   13.0646   -6.9935    0.0000 C   0  0
   11.5638   -6.9987    0.0000 N   0  0
   10.8183   -8.3003    0.0000 C   0  0
    9.3183   -8.3055    0.0000 C   0  0
    8.5637   -7.0091    0.0000 N   0  0
    7.0629   -7.0113    0.0000 C   0  0
    6.3098   -5.7131    0.0000 C   0  0
    4.8090   -5.7153    0.0000 C   0  0
    4.0559   -4.4171    0.0000 N   0  0
    2.5551   -4.4192    0.0000 C   0  0
    1.8073   -5.7196    0.0000 O   0  0
    1.8032   -3.1233    0.0000 C   0  0
    2.4133   -1.7530    0.0000 C   0  0
    1.2990   -0.7500    0.0000 C   0  0
    1.2990    0.7500    0.0000 C   0  0
    0.0000    1.5000    0.0000 C   0  0
   -1.2990    0.7500    0.0000 C   0  0
   -1.2990   -0.7500    0.0000 C   0  0
    0.0000   -1.5000    0.0000 C   0  0
    0.3114   -2.9665    0.0000 N   0  0
   -0.6890   -4.0818    0.0000 C   0  0
   -0.2234   -5.5086    0.0000 C   0  0
   -1.2234   -6.6267    0.0000 C   0  0
   -0.7552   -8.0517    0.0000 C   0  0
    0.7130   -8.3588    0.0000 C   0  0
    1.7131   -7.2408    0.0000 C   0  0
    1.2449   -5.8157    0.0000 C   0  0
    9.3093   -5.7075    0.0000 C   0  0
   10.8093   -5.7023    0.0000 C   0  0
  1  2  1  0
  2  3  1  0
  3  4  2  0
  4  5  1  0
  5  6  2  0
  6  7  1  0
  7  8  2  0
  8  3  1  0
  8  9  1  0
  9 10  1  0
 10 11  1  0
 11 12  1  0
 12 13  1  0
 13 14  1  0
 14 15  1  0
 15 16  1  0
 16 17  1  0
 17 18  2  0
 17 19  1  0
 19 20  2  0
 20 21  1  0
 21 22  2  0
 22 23  1  0
 23 24  2  0
 24 25  1  0
 25 26  2  0
 26 21  1  0
 26 27  1  0
 27 19  1  0
 27 28  1  0
 28 29  1  0
 29 30  2  0
 30 31  1  0
 31 32  2  0
 32 33  1  0
 33 34  2  0
 34 29  1  0
 12 35  1  0
 35 36  1  0
 36  9  1  0
M  END
> <assay_chembl_id>
CHEMBL3421405

> <assay_description>
Cytotoxicity against human LNCAP cells after 48 hrs by WST-8 assay

> <document_journal>
Eur J Med Chem

> <molecule_chembl_id>
CHEMBL3415020

> <standard_value>
25540

> <IC50_uM>
25.54

> <Activity>
No

> <Canonical_Smiles>
COc1ccccc1N1CCN(CCCNC(=O)c2cc3ccccc3n2Cc2ccccc2)CC1

$$$$

  SciTegic03142313312D

 18 19  0  0  0  0            999 V2000
    2.5981   -1.5000    0.0000 I   0  0
    1.2990   -0.7500    0.0000 C   0  0
    1.2990    0.7500    0.0000 C   0  0
    0.0000    1.5000    0.0000 C   0  0
   -1.2990    0.7500    0.0000 C   0  0
   -2.6003    1.4977    0.0000 O   0  0
   -3.8990    0.7455    0.0000 C   0  0
   -5.2003    1.4932    0.0000 C   0  0
   -6.4990    0.7409    0.0000 C   0  0
   -7.8003    1.4887    0.0000 C   0  0
   -9.0990    0.7364    0.0000 C   0  0
  -10.4003    1.4841    0.0000 N   0  0
  -11.7517    0.8631    0.0000 C   0  0
  -12.7554    1.9778    0.0000 C   0  0
  -12.0054    3.2768    0.0000 N   0  0
  -10.5381    2.9650    0.0000 C   0  0
   -1.2990   -0.7500    0.0000 C   0  0
    0.0000   -1.5000    0.0000 C   0  0
  1  2  1  0
  2  3  2  0
  3  4  1  0
  4  5  2  0
  5  6  1  0
  6  7  1  0
  7  8  1  0
  8  9  1  0
  9 10  1  0
 10 11  1  0
 11 12  1  0
 12 13  1  0
 13 14  2  0
 14 15  1  0
 15 16  2  0
 16 12  1  0
  5 17  1  0
 17 18  2  0
 18  2  1  0
M  END
> <assay_chembl_id>
CHEMBL3420445

> <assay_description>
Cytotoxicity against human LNCAP cells incubated for 72 hrs by sulforhodamine B assay

> <document_journal>
Eur J Med Chem

> <molecule_chembl_id>
CHEMBL3415244

> <standard_value>
27790

> <IC50_uM>
27.79

> <Activity>
No

> <Canonical_Smiles>
Ic1ccc(OCCCCCn2ccnc2)cc1

$$$$

  SciTegic03142313312D

 18 20  0  0  0  0            999 V2000
    1.2990   -0.7500    0.0000 C   0  0
    1.2990    0.7500    0.0000 C   0  0
    0.0000    1.5000    0.0000 C   0  0
   -1.2990    0.7500    0.0000 C   0  0
   -2.7248    1.2135    0.0000 S   0  0
   -3.6065    0.0000    0.0000 C   0  0
   -5.1047   -0.0031    0.0000 S   0  0
   -5.8532   -1.3040    0.0000 C   0  0
   -7.3541   -1.3071    0.0000 C   0  0
   -8.1026   -2.6079    0.0000 C   0  0
   -9.6034   -2.6111    0.0000 N   0  0
  -10.4632   -3.8246    0.0000 C   0  0
  -11.8898   -3.3611    0.0000 C   0  0
  -11.8898   -1.8611    0.0000 N   0  0
  -10.4633   -1.3976    0.0000 C   0  0
   -2.7248   -1.2135    0.0000 N   0  0
   -1.2990   -0.7500    0.0000 C   0  0
    0.0000   -1.5000    0.0000 C   0  0
  1  2  2  0
  2  3  1  0
  3  4  2  0
  4  5  1  0
  5  6  1  0
  6  7  1  0
  7  8  1  0
  8  9  1  0
  9 10  1  0
 10 11  1  0
 11 12  1  0
 12 13  2  0
 13 14  1  0
 14 15  2  0
 15 11  1  0
  6 16  2  0
 16 17  1  0
 17  4  1  0
 17 18  2  0
 18  1  1  0
M  END
> <assay_chembl_id>
CHEMBL3420445

> <assay_description>
Cytotoxicity against human LNCAP cells incubated for 72 hrs by sulforhodamine B assay

> <document_journal>
Eur J Med Chem

> <molecule_chembl_id>
CHEMBL3415248

> <standard_value>
55030

> <IC50_uM>
55.03

> <Activity>
No

> <Canonical_Smiles>
c1ccc2sc(SCCCn3ccnc3)nc2c1

$$$$

  SciTegic03142313312D

 19 21  0  0  0  0            999 V2000
    1.2990   -0.7500    0.0000 C   0  0
    1.2990    0.7500    0.0000 C   0  0
    0.0000    1.5000    0.0000 C   0  0
   -1.2990    0.7500    0.0000 C   0  0
   -2.7248    1.2135    0.0000 S   0  0
   -3.6065    0.0000    0.0000 C   0  0
   -5.1047   -0.0031    0.0000 S   0  0
   -5.8532   -1.3040    0.0000 C   0  0
   -7.3541   -1.3071    0.0000 C   0  0
   -8.1026   -2.6079    0.0000 C   0  0
   -9.6034   -2.6111    0.0000 C   0  0
  -10.3519   -3.9119    0.0000 N   0  0
  -11.8323   -4.0550    0.0000 C   0  0
  -12.1390   -5.5233    0.0000 C   0  0
  -10.8374   -6.2687    0.0000 N   0  0
   -9.7262   -5.2611    0.0000 C   0  0
   -2.7248   -1.2135    0.0000 N   0  0
   -1.2990   -0.7500    0.0000 C   0  0
    0.0000   -1.5000    0.0000 C   0  0
  1  2  2  0
  2  3  1  0
  3  4  2  0
  4  5  1  0
  5  6  1  0
  6  7  1  0
  7  8  1  0
  8  9  1  0
  9 10  1  0
 10 11  1  0
 11 12  1  0
 12 13  1  0
 13 14  2  0
 14 15  1  0
 15 16  2  0
 16 12  1  0
  6 17  2  0
 17 18  1  0
 18  4  1  0
 18 19  2  0
 19  1  1  0
M  END
> <assay_chembl_id>
CHEMBL3420445

> <assay_description>
Cytotoxicity against human LNCAP cells incubated for 72 hrs by sulforhodamine B assay

> <document_journal>
Eur J Med Chem

> <molecule_chembl_id>
CHEMBL3415249

> <standard_value>
54730

> <IC50_uM>
54.73

> <Activity>
No

> <Canonical_Smiles>
c1ccc2sc(SCCCCn3ccnc3)nc2c1

$$$$

  SciTegic03142313312D

 17 18  0  0  0  0            999 V2000
    2.5981   -1.5000    0.0000 Br  0  0
    1.2990   -0.7500    0.0000 C   0  0
    1.2990    0.7500    0.0000 C   0  0
    0.0000    1.5000    0.0000 C   0  0
   -1.2990    0.7500    0.0000 C   0  0
   -1.2990   -0.7500    0.0000 C   0  0
   -2.5972   -1.5031    0.0000 O   0  0
   -2.5951   -3.0039    0.0000 C   0  0
   -3.8933   -3.7570    0.0000 C   0  0
   -3.8912   -5.2578    0.0000 C   0  0
   -5.1894   -6.0109    0.0000 C   0  0
   -5.1872   -7.5117    0.0000 N   0  0
   -6.3977   -8.3758    0.0000 C   0  0
   -5.9292   -9.8008    0.0000 C   0  0
   -4.4293   -9.7955    0.0000 N   0  0
   -3.9707   -8.3673    0.0000 C   0  0
    0.0000   -1.5000    0.0000 C   0  0
  1  2  1  0
  2  3  2  0
  3  4  1  0
  4  5  2  0
  5  6  1  0
  6  7  1  0
  7  8  1  0
  8  9  1  0
  9 10  1  0
 10 11  1  0
 11 12  1  0
 12 13  1  0
 13 14  2  0
 14 15  1  0
 15 16  2  0
 16 12  1  0
  6 17  2  0
 17  2  1  0
M  END
> <assay_chembl_id>
CHEMBL3420445

> <assay_description>
Cytotoxicity against human LNCAP cells incubated for 72 hrs by sulforhodamine B assay

> <document_journal>
Eur J Med Chem

> <molecule_chembl_id>
CHEMBL482686

> <standard_value>
27610

> <IC50_uM>
27.61

> <Activity>
No

> <Canonical_Smiles>
Brc1cccc(OCCCCn2ccnc2)c1

$$$$

  SciTegic03142313312D

 19 20  0  0  0  0            999 V2000
   -1.3369   -6.7327    0.0000 C   0  0
   -1.3366   -5.2327    0.0000 C   0  0
   -2.6357   -4.4829    0.0000 C   0  0
   -0.0372   -4.4818    0.0000 C   0  0
   -0.0368   -2.9810    0.0000 C   0  0
    1.2626   -2.2300    0.0000 C   0  0
    1.2990   -0.7500    0.0000 C   0  0  3  0  0  0
    2.5793    0.0316    0.0000 C   0  0
    1.2990    0.7500    0.0000 C   0  0
    0.0000    1.5000    0.0000 C   0  0
   -1.2990    0.7500    0.0000 C   0  0
   -2.5981    1.5000    0.0000 C   0  0
   -3.8971    0.7500    0.0000 C   0  0
   -5.1962    1.5000    0.0000 O   0  0
   -3.8971   -0.7500    0.0000 C   0  0
   -2.5981   -1.5000    0.0000 C   0  0
   -2.5981   -3.0000    0.0000 O   0  0
   -1.2990   -0.7500    0.0000 C   0  0
    0.0000   -1.5000    0.0000 O   0  0
  1  2  1  0
  2  3  1  0
  2  4  1  0
  4  5  1  0
  5  6  1  0
  6  7  1  0
  7  8  1  4
  7  9  1  0
  9 10  1  0
 10 11  1  0
 11 12  2  0
 12 13  1  0
 13 14  1  0
 13 15  2  0
 15 16  1  0
 16 17  1  0
 16 18  2  0
 18 11  1  0
 18 19  1  0
 19  7  1  0
M  END
> <assay_chembl_id>
CHEMBL3419780

> <assay_description>
Antiproliferative activity against human LNCAP cells assessed as suppression of cell viability after 24 hrs by MTT assay

> <document_journal>
J Med Chem

> <molecule_chembl_id>
CHEMBL3414678

> <standard_value>
27000

> <IC50_uM>
27

> <Activity>
No

> <Canonical_Smiles>
CC(C)CCCC1(C)CCc2cc(O)cc(O)c2O1

$$$$

  SciTegic03142313312D

 20 21  0  0  0  0            999 V2000
    3.8983   -0.7459    0.0000 C   0  0
    2.6003   -1.4977    0.0000 O   0  0
    1.2990   -0.7500    0.0000 C   0  0
    1.2990    0.7500    0.0000 C   0  0
    0.0000    1.5000    0.0000 C   0  0
    0.0000    3.0000    0.0000 O   0  0
   -1.2990    0.7500    0.0000 C   0  0
   -1.2990   -0.7500    0.0000 C   0  0
    0.0000   -1.5000    0.0000 C   0  0
    0.0000   -3.0000    0.0000 O   0  0
   -1.2990   -3.7500    0.0000 C   0  0  3  0  0  0
    0.0180   -4.4679    0.0000 C   0  0
   -2.5990   -4.4584    0.0000 C   0  0
   -3.8990   -3.7086    0.0000 C   0  0
   -5.1989   -4.4587    0.0000 C   0  0
   -6.4990   -3.7089    0.0000 C   0  0
   -7.7982   -4.4586    0.0000 C   0  0
   -6.4992   -2.2089    0.0000 C   0  0
   -2.5981   -3.0000    0.0000 C   0  0
   -2.5981   -1.5000    0.0000 C   0  0
  1  2  1  0
  2  3  1  0
  3  4  2  0
  4  5  1  0
  5  6  1  0
  5  7  2  0
  7  8  1  0
  8  9  2  0
  9  3  1  0
  9 10  1  0
 10 11  1  0
 11 12  1  4
 11 13  1  0
 13 14  1  0
 14 15  1  0
 15 16  1  0
 16 17  1  0
 16 18  1  0
 11 19  1  0
 19 20  1  0
 20  8  1  0
M  END
> <assay_chembl_id>
CHEMBL3419780

> <assay_description>
Antiproliferative activity against human LNCAP cells assessed as suppression of cell viability after 24 hrs by MTT assay

> <document_journal>
J Med Chem

> <molecule_chembl_id>
CHEMBL3414679

> <standard_value>
26000

> <IC50_uM>
26

> <Activity>
No

> <Canonical_Smiles>
COc1cc(O)cc2c1OC(C)(CCCC(C)C)CC2

$$$$

  SciTegic03142313312D

 19 20  0  0  0  0            999 V2000
   -1.3369   -6.7327    0.0000 C   0  0
   -1.3366   -5.2327    0.0000 C   0  0
   -2.6357   -4.4829    0.0000 C   0  0
   -0.0372   -4.4818    0.0000 C   0  0
   -0.0368   -2.9810    0.0000 C   0  0
    1.2626   -2.2300    0.0000 C   0  0
    1.2990   -0.7500    0.0000 C   0  0  3  0  0  0
    2.5793    0.0316    0.0000 C   0  0
    1.2990    0.7500    0.0000 C   0  0
    0.0000    1.5000    0.0000 C   0  0
   -1.2990    0.7500    0.0000 C   0  0
   -2.5981    1.5000    0.0000 C   0  0
   -3.8971    0.7500    0.0000 C   0  0
   -3.8971   -0.7500    0.0000 C   0  0
   -5.1961   -1.5000    0.0000 O   0  0
   -2.5981   -1.5000    0.0000 C   0  0
   -2.5981   -3.0000    0.0000 O   0  0
   -1.2990   -0.7500    0.0000 C   0  0
    0.0000   -1.5000    0.0000 O   0  0
  1  2  1  0
  2  3  1  0
  2  4  1  0
  4  5  1  0
  5  6  1  0
  6  7  1  0
  7  8  1  4
  7  9  1  0
  9 10  1  0
 10 11  1  0
 11 12  2  0
 12 13  1  0
 13 14  2  0
 14 15  1  0
 14 16  1  0
 16 17  1  0
 16 18  2  0
 18 11  1  0
 18 19  1  0
 19  7  1  0
M  END
> <assay_chembl_id>
CHEMBL3419780

> <assay_description>
Antiproliferative activity against human LNCAP cells assessed as suppression of cell viability after 24 hrs by MTT assay

> <document_journal>
J Med Chem

> <molecule_chembl_id>
CHEMBL3414683

> <standard_value>
23000

> <IC50_uM>
23

> <Activity>
No

> <Canonical_Smiles>
CC(C)CCCC1(C)CCc2ccc(O)c(O)c2O1

$$$$

  SciTegic03142313312D

 22 23  0  0  0  0            999 V2000
   -1.3369   -6.7327    0.0000 C   0  0
   -1.3366   -5.2327    0.0000 C   0  0
   -2.6357   -4.4829    0.0000 C   0  0
   -0.0372   -4.4818    0.0000 C   0  0
   -0.0368   -2.9810    0.0000 C   0  0
    1.2626   -2.2300    0.0000 C   0  0
    1.2990   -0.7500    0.0000 C   0  0  3  0  0  0
    2.5793    0.0316    0.0000 C   0  0
    1.2990    0.7500    0.0000 C   0  0
    0.0000    1.5000    0.0000 C   0  0
   -1.2990    0.7500    0.0000 C   0  0
   -2.5981    1.5000    0.0000 C   0  0
   -3.8971    0.7500    0.0000 C   0  0
   -5.1969    1.5004    0.0000 S   0  0
   -6.4957    0.7500    0.0000 N   0  0
   -5.1978    3.0004    0.0000 O   0  0
   -6.4963    2.2498    0.0000 O   0  0
   -3.8971   -0.7500    0.0000 C   0  0
   -2.5981   -1.5000    0.0000 C   0  0
   -2.5981   -3.0000    0.0000 F   0  0
   -1.2990   -0.7500    0.0000 C   0  0
    0.0000   -1.5000    0.0000 O   0  0
  1  2  1  0
  2  3  1  0
  2  4  1  0
  4  5  1  0
  5  6  1  0
  6  7  1  0
  7  8  1  4
  7  9  1  0
  9 10  1  0
 10 11  1  0
 11 12  2  0
 12 13  1  0
 13 14  1  0
 14 15  1  0
 14 16  2  0
 14 17  2  0
 13 18  2  0
 18 19  1  0
 19 20  1  0
 19 21  2  0
 21 11  1  0
 21 22  1  0
 22  7  1  0
M  END
> <assay_chembl_id>
CHEMBL3419780

> <assay_description>
Antiproliferative activity against human LNCAP cells assessed as suppression of cell viability after 24 hrs by MTT assay

> <document_journal>
J Med Chem

> <molecule_chembl_id>
CHEMBL3414687

> <standard_value>
20000

> <IC50_uM>
20

> <Activity>
No

> <Canonical_Smiles>
CC(C)CCCC1(C)CCc2cc(S(N)(=O)=O)cc(F)c2O1

$$$$

  SciTegic03142313312D

 20 21  0  0  0  0            999 V2000
    3.1247   -2.0836    0.0000 C   0  0
    1.6332   -2.2426    0.0000 C   0  0
    0.7500   -1.0323    0.0000 N   0  0
    1.2135    0.3943    0.0000 C   0  0
    0.0000    1.2760    0.0000 C   0  0
   -1.2135    0.3943    0.0000 N   0  0
   -0.7500   -1.0323    0.0000 C   0  0
   -1.6332   -2.2426    0.0000 C   0  0
   -3.1255   -2.0835    0.0000 C   0  0
   -4.0102   -3.2959    0.0000 C   0  0
   -3.4025   -4.6673    0.0000 O   0  0
   -5.5026   -3.1369    0.0000 C   0  0
   -6.3873   -4.3492    0.0000 C   0  0
   -7.8796   -4.1902    0.0000 C   0  0
   -8.6034   -2.8909    0.0000 N   0  0
  -10.0717   -3.1977    0.0000 C   0  0
  -10.2337   -4.6889    0.0000 C   0  0
   -8.8655   -5.3038    0.0000 N   0  0
   -8.5509   -6.7686    0.0000 C   0  0
   -9.6628   -7.7753    0.0000 C   0  0
  1  2  1  0
  2  3  1  0
  3  4  1  0
  4  5  2  0
  5  6  1  0
  6  7  2  0
  7  3  1  0
  7  8  1  0
  8  9  2  0
  9 10  1  0
 10 11  2  0
 10 12  1  0
 12 13  2  0
 13 14  1  0
 14 15  2  0
 15 16  1  0
 16 17  2  0
 17 18  1  0
 18 14  1  0
 18 19  1  0
 19 20  1  0
M  END
> <assay_chembl_id>
CHEMBL3579909

> <assay_description>
Antiproliferative activity against human LNCAP cells assessed as inhibition of cell proliferation after 3 days by WST1 assay

> <document_journal>
J Med Chem

> <molecule_chembl_id>
CHEMBL3576989

> <standard_value>
590

> <IC50_uM>
0.59

> <Activity>
Yes

> <Canonical_Smiles>
CCn1ccnc1/C=C/C(=O)/C=C/c1nccn1CC

$$$$

  SciTegic03142313312D

 22 23  0  0  0  0            999 V2000
    4.0097   -3.2952    0.0000 C   0  0
    3.1255   -2.0835    0.0000 C   0  0
    1.6332   -2.2426    0.0000 C   0  0
    0.7500   -1.0323    0.0000 N   0  0
    1.2135    0.3943    0.0000 C   0  0
    0.0000    1.2760    0.0000 C   0  0
   -1.2135    0.3943    0.0000 N   0  0
   -0.7500   -1.0323    0.0000 C   0  0
   -1.6332   -2.2426    0.0000 C   0  0
   -3.1255   -2.0835    0.0000 C   0  0
   -4.0102   -3.2959    0.0000 C   0  0
   -3.4025   -4.6673    0.0000 O   0  0
   -5.5026   -3.1369    0.0000 C   0  0
   -6.3873   -4.3492    0.0000 C   0  0
   -7.8796   -4.1902    0.0000 C   0  0
   -8.6034   -2.8909    0.0000 N   0  0
  -10.0717   -3.1977    0.0000 C   0  0
  -10.2337   -4.6889    0.0000 C   0  0
   -8.8655   -5.3038    0.0000 N   0  0
   -8.5509   -6.7686    0.0000 C   0  0
   -9.6635   -7.7759    0.0000 C   0  0
   -9.3484   -9.2424    0.0000 C   0  0
  1  2  1  0
  2  3  1  0
  3  4  1  0
  4  5  1  0
  5  6  2  0
  6  7  1  0
  7  8  2  0
  8  4  1  0
  8  9  1  0
  9 10  2  0
 10 11  1  0
 11 12  2  0
 11 13  1  0
 13 14  2  0
 14 15  1  0
 15 16  2  0
 16 17  1  0
 17 18  2  0
 18 19  1  0
 19 15  1  0
 19 20  1  0
 20 21  1  0
 21 22  1  0
M  END
> <assay_chembl_id>
CHEMBL3579909

> <assay_description>
Antiproliferative activity against human LNCAP cells assessed as inhibition of cell proliferation after 3 days by WST1 assay

> <document_journal>
J Med Chem

> <molecule_chembl_id>
CHEMBL3576990

> <standard_value>
780

> <IC50_uM>
0.78

> <Activity>
Yes

> <Canonical_Smiles>
CCCn1ccnc1/C=C/C(=O)/C=C/c1nccn1CCC

$$$$

  SciTegic03142313312D

 24 25  0  0  0  0            999 V2000
    5.5018   -3.1369    0.0000 C   0  0
    4.0102   -3.2959    0.0000 C   0  0
    3.1255   -2.0835    0.0000 C   0  0
    1.6332   -2.2426    0.0000 C   0  0
    0.7500   -1.0323    0.0000 N   0  0
    1.2135    0.3943    0.0000 C   0  0
    0.0000    1.2760    0.0000 C   0  0
   -1.2135    0.3943    0.0000 N   0  0
   -0.7500   -1.0323    0.0000 C   0  0
   -1.6332   -2.2426    0.0000 C   0  0
   -3.1255   -2.0835    0.0000 C   0  0
   -4.0102   -3.2959    0.0000 C   0  0
   -3.4025   -4.6673    0.0000 O   0  0
   -5.5026   -3.1369    0.0000 C   0  0
   -6.3873   -4.3492    0.0000 C   0  0
   -7.8796   -4.1902    0.0000 C   0  0
   -8.6034   -2.8909    0.0000 N   0  0
  -10.0717   -3.1977    0.0000 C   0  0
  -10.2337   -4.6889    0.0000 C   0  0
   -8.8655   -5.3038    0.0000 N   0  0
   -8.5509   -6.7686    0.0000 C   0  0
   -9.6635   -7.7759    0.0000 C   0  0
   -9.3483   -9.2433    0.0000 C   0  0
  -10.4602  -10.2500    0.0000 C   0  0
  1  2  1  0
  2  3  1  0
  3  4  1  0
  4  5  1  0
  5  6  1  0
  6  7  2  0
  7  8  1  0
  8  9  2  0
  9  5  1  0
  9 10  1  0
 10 11  2  0
 11 12  1  0
 12 13  2  0
 12 14  1  0
 14 15  2  0
 15 16  1  0
 16 17  2  0
 17 18  1  0
 18 19  2  0
 19 20  1  0
 20 16  1  0
 20 21  1  0
 21 22  1  0
 22 23  1  0
 23 24  1  0
M  END
> <assay_chembl_id>
CHEMBL3579909

> <assay_description>
Antiproliferative activity against human LNCAP cells assessed as inhibition of cell proliferation after 3 days by WST1 assay

> <document_journal>
J Med Chem

> <molecule_chembl_id>
CHEMBL3576991

> <standard_value>
490

> <IC50_uM>
0.49

> <Activity>
Yes

> <Canonical_Smiles>
CCCCn1ccnc1/C=C/C(=O)/C=C/c1nccn1CCCC

$$$$

  SciTegic03142313312D

 26 27  0  0  0  0            999 V2000
    6.3868   -4.3485    0.0000 C   0  0
    5.5026   -3.1368    0.0000 C   0  0
    4.0102   -3.2959    0.0000 C   0  0
    3.1255   -2.0835    0.0000 C   0  0
    1.6332   -2.2426    0.0000 C   0  0
    0.7500   -1.0323    0.0000 N   0  0
    1.2135    0.3943    0.0000 C   0  0
    0.0000    1.2760    0.0000 C   0  0
   -1.2135    0.3943    0.0000 N   0  0
   -0.7500   -1.0323    0.0000 C   0  0
   -1.6332   -2.2426    0.0000 C   0  0
   -3.1255   -2.0835    0.0000 C   0  0
   -4.0102   -3.2959    0.0000 C   0  0
   -3.4025   -4.6673    0.0000 O   0  0
   -5.5026   -3.1369    0.0000 C   0  0
   -6.3873   -4.3492    0.0000 C   0  0
   -7.8796   -4.1902    0.0000 C   0  0
   -8.6034   -2.8909    0.0000 N   0  0
  -10.0717   -3.1977    0.0000 C   0  0
  -10.2337   -4.6889    0.0000 C   0  0
   -8.8655   -5.3038    0.0000 N   0  0
   -8.5509   -6.7686    0.0000 C   0  0
   -9.6635   -7.7759    0.0000 C   0  0
   -9.3483   -9.2433    0.0000 C   0  0
  -10.4608  -10.2506    0.0000 C   0  0
  -10.1458  -11.7171    0.0000 C   0  0
  1  2  1  0
  2  3  1  0
  3  4  1  0
  4  5  1  0
  5  6  1  0
  6  7  1  0
  7  8  2  0
  8  9  1  0
  9 10  2  0
 10  6  1  0
 10 11  1  0
 11 12  2  0
 12 13  1  0
 13 14  2  0
 13 15  1  0
 15 16  2  0
 16 17  1  0
 17 18  2  0
 18 19  1  0
 19 20  2  0
 20 21  1  0
 21 17  1  0
 21 22  1  0
 22 23  1  0
 23 24  1  0
 24 25  1  0
 25 26  1  0
M  END
> <assay_chembl_id>
CHEMBL3579909

> <assay_description>
Antiproliferative activity against human LNCAP cells assessed as inhibition of cell proliferation after 3 days by WST1 assay

> <document_journal>
J Med Chem

> <molecule_chembl_id>
CHEMBL3576992

> <standard_value>
590

> <IC50_uM>
0.59

> <Activity>
Yes

> <Canonical_Smiles>
CCCCCn1ccnc1/C=C/C(=O)/C=C/c1nccn1CCCCC

$$$$

  SciTegic03142313312D

 26 27  0  0  0  0            999 V2000
    5.5018   -3.1369    0.0000 C   0  0
    4.0102   -3.2959    0.0000 C   0  0
    3.1255   -2.0835    0.0000 C   0  0
    1.6332   -2.2426    0.0000 C   0  0  3  0  0  0
    1.0255   -3.6140    0.0000 C   0  0
    0.7500   -1.0323    0.0000 N   0  0
    1.2135    0.3943    0.0000 C   0  0
    0.0000    1.2760    0.0000 C   0  0
   -1.2135    0.3943    0.0000 N   0  0
   -0.7500   -1.0323    0.0000 C   0  0
   -1.6332   -2.2426    0.0000 C   0  0
   -3.1255   -2.0835    0.0000 C   0  0
   -4.0102   -3.2959    0.0000 C   0  0
   -3.4025   -4.6673    0.0000 O   0  0
   -5.5026   -3.1369    0.0000 C   0  0
   -6.3873   -4.3492    0.0000 C   0  0
   -7.8796   -4.1902    0.0000 C   0  0
   -8.6034   -2.8909    0.0000 N   0  0
  -10.0717   -3.1977    0.0000 C   0  0
  -10.2337   -4.6889    0.0000 C   0  0
   -8.8655   -5.3038    0.0000 N   0  0
   -8.5509   -6.7686    0.0000 C   0  0  3  0  0  0
   -7.1232   -7.2286    0.0000 C   0  0
   -9.6635   -7.7759    0.0000 C   0  0
   -9.3483   -9.2433    0.0000 C   0  0
  -10.4602  -10.2500    0.0000 C   0  0
  1  2  1  0
  2  3  1  0
  3  4  1  0
  4  5  1  4
  4  6  1  0
  6  7  1  0
  7  8  2  0
  8  9  1  0
  9 10  2  0
 10  6  1  0
 10 11  1  0
 11 12  2  0
 12 13  1  0
 13 14  2  0
 13 15  1  0
 15 16  2  0
 16 17  1  0
 17 18  2  0
 18 19  1  0
 19 20  2  0
 20 21  1  0
 21 17  1  0
 21 22  1  0
 22 23  1  4
 22 24  1  0
 24 25  1  0
 25 26  1  0
M  END
> <assay_chembl_id>
CHEMBL3579909

> <assay_description>
Antiproliferative activity against human LNCAP cells assessed as inhibition of cell proliferation after 3 days by WST1 assay

> <document_journal>
J Med Chem

> <molecule_chembl_id>
CHEMBL3576995

> <standard_value>
240

> <IC50_uM>
0.24

> <Activity>
Yes

> <Canonical_Smiles>
CCCC(C)n1ccnc1/C=C/C(=O)/C=C/c1nccn1C(C)CCC

$$$$

  SciTegic03142313312D

 26 27  0  0  0  0            999 V2000
    4.0097   -3.2952    0.0000 C   0  0
    3.1255   -2.0835    0.0000 C   0  0
    1.6332   -2.2426    0.0000 C   0  0
    1.0280   -3.6160    0.0000 C   0  0
    1.9135   -4.8267    0.0000 C   0  0
    0.7500   -1.0323    0.0000 N   0  0
    1.2135    0.3943    0.0000 C   0  0
    0.0000    1.2760    0.0000 C   0  0
   -1.2135    0.3943    0.0000 N   0  0
   -0.7500   -1.0323    0.0000 C   0  0
   -1.6332   -2.2426    0.0000 C   0  0
   -3.1255   -2.0835    0.0000 C   0  0
   -4.0102   -3.2959    0.0000 C   0  0
   -3.4025   -4.6673    0.0000 O   0  0
   -5.5026   -3.1369    0.0000 C   0  0
   -6.3873   -4.3492    0.0000 C   0  0
   -7.8796   -4.1902    0.0000 C   0  0
   -8.6034   -2.8909    0.0000 N   0  0
  -10.0717   -3.1977    0.0000 C   0  0
  -10.2337   -4.6889    0.0000 C   0  0
   -8.8655   -5.3038    0.0000 N   0  0
   -8.5509   -6.7686    0.0000 C   0  0
   -9.6635   -7.7759    0.0000 C   0  0
   -9.3484   -9.2424    0.0000 C   0  0
   -7.1234   -7.2318    0.0000 C   0  0
   -6.8100   -8.6986    0.0000 C   0  0
  1  2  1  0
  2  3  1  0
  3  4  1  0
  4  5  1  0
  3  6  1  0
  6  7  1  0
  7  8  2  0
  8  9  1  0
  9 10  2  0
 10  6  1  0
 10 11  1  0
 11 12  2  0
 12 13  1  0
 13 14  2  0
 13 15  1  0
 15 16  2  0
 16 17  1  0
 17 18  2  0
 18 19  1  0
 19 20  2  0
 20 21  1  0
 21 17  1  0
 21 22  1  0
 22 23  1  0
 23 24  1  0
 22 25  1  0
 25 26  1  0
M  END
> <assay_chembl_id>
CHEMBL3579909

> <assay_description>
Antiproliferative activity against human LNCAP cells assessed as inhibition of cell proliferation after 3 days by WST1 assay

> <document_journal>
J Med Chem

> <molecule_chembl_id>
CHEMBL3576872

> <standard_value>
580

> <IC50_uM>
0.58

> <Activity>
Yes

> <Canonical_Smiles>
CCC(CC)n1ccnc1/C=C/C(=O)/C=C/c1nccn1C(CC)CC

$$$$

  SciTegic03142313312D

 26 27  0  0  0  0            999 V2000
    5.5018   -3.1369    0.0000 C   0  0
    4.0102   -3.2959    0.0000 C   0  0
    3.4025   -4.6673    0.0000 C   0  0
    3.1255   -2.0835    0.0000 C   0  0
    1.6332   -2.2426    0.0000 C   0  0
    0.7500   -1.0323    0.0000 N   0  0
    1.2135    0.3943    0.0000 C   0  0
    0.0000    1.2760    0.0000 C   0  0
   -1.2135    0.3943    0.0000 N   0  0
   -0.7500   -1.0323    0.0000 C   0  0
   -1.6332   -2.2426    0.0000 C   0  0
   -3.1255   -2.0835    0.0000 C   0  0
   -4.0102   -3.2959    0.0000 C   0  0
   -3.4025   -4.6673    0.0000 O   0  0
   -5.5026   -3.1369    0.0000 C   0  0
   -6.3873   -4.3492    0.0000 C   0  0
   -7.8796   -4.1902    0.0000 C   0  0
   -8.6034   -2.8909    0.0000 N   0  0
  -10.0717   -3.1977    0.0000 C   0  0
  -10.2337   -4.6889    0.0000 C   0  0
   -8.8655   -5.3038    0.0000 N   0  0
   -8.5509   -6.7686    0.0000 C   0  0
   -9.6635   -7.7759    0.0000 C   0  0
   -9.3483   -9.2433    0.0000 C   0  0
  -10.4602  -10.2500    0.0000 C   0  0
   -7.9205   -9.7033    0.0000 C   0  0
  1  2  1  0
  2  3  1  0
  2  4  1  0
  4  5  1  0
  5  6  1  0
  6  7  1  0
  7  8  2  0
  8  9  1  0
  9 10  2  0
 10  6  1  0
 10 11  1  0
 11 12  2  0
 12 13  1  0
 13 14  2  0
 13 15  1  0
 15 16  2  0
 16 17  1  0
 17 18  2  0
 18 19  1  0
 19 20  2  0
 20 21  1  0
 21 17  1  0
 21 22  1  0
 22 23  1  0
 23 24  1  0
 24 25  1  0
 24 26  1  0
M  END
> <assay_chembl_id>
CHEMBL3579909

> <assay_description>
Antiproliferative activity against human LNCAP cells assessed as inhibition of cell proliferation after 3 days by WST1 assay

> <document_journal>
J Med Chem

> <molecule_chembl_id>
CHEMBL3576996

> <standard_value>
570

> <IC50_uM>
0.57

> <Activity>
Yes

> <Canonical_Smiles>
CC(C)CCn1ccnc1/C=C/C(=O)/C=C/c1nccn1CCC(C)C

$$$$

  SciTegic03142313312D

 26 27  0  0  0  0            999 V2000
    5.5018   -3.1369    0.0000 C   0  0
    4.0102   -3.2959    0.0000 C   0  0
    3.4025   -4.6673    0.0000 C   0  0
    3.1255   -2.0835    0.0000 C   0  0
    1.6332   -2.2426    0.0000 C   0  0
    0.7500   -1.0323    0.0000 N   0  0
    1.2135    0.3943    0.0000 C   0  0
    0.0000    1.2760    0.0000 C   0  0
   -1.2135    0.3943    0.0000 N   0  0
   -0.7500   -1.0323    0.0000 C   0  0
   -1.6332   -2.2426    0.0000 C   0  0
   -3.1255   -2.0835    0.0000 C   0  0
   -4.0102   -3.2959    0.0000 C   0  0
   -3.4025   -4.6673    0.0000 O   0  0
   -5.5026   -3.1369    0.0000 C   0  0
   -6.3873   -4.3492    0.0000 C   0  0
   -7.8796   -4.1902    0.0000 C   0  0
   -8.6034   -2.8909    0.0000 N   0  0
  -10.0717   -3.1977    0.0000 C   0  0
  -10.2337   -4.6889    0.0000 C   0  0
   -8.8655   -5.3038    0.0000 N   0  0
   -8.5509   -6.7686    0.0000 C   0  0
   -9.6635   -7.7759    0.0000 C   0  0
   -9.3483   -9.2433    0.0000 C   0  0
  -10.4602  -10.2500    0.0000 C   0  0
   -7.9205   -9.7033    0.0000 C   0  0
  1  2  1  0
  2  3  1  0
  2  4  2  0
  4  5  1  0
  5  6  1  0
  6  7  1  0
  7  8  2  0
  8  9  1  0
  9 10  2  0
 10  6  1  0
 10 11  1  0
 11 12  2  0
 12 13  1  0
 13 14  2  0
 13 15  1  0
 15 16  2  0
 16 17  1  0
 17 18  2  0
 18 19  1  0
 19 20  2  0
 20 21  1  0
 21 17  1  0
 21 22  1  0
 22 23  1  0
 23 24  2  0
 24 25  1  0
 24 26  1  0
M  END
> <assay_chembl_id>
CHEMBL3579909

> <assay_description>
Antiproliferative activity against human LNCAP cells assessed as inhibition of cell proliferation after 3 days by WST1 assay

> <document_journal>
J Med Chem

> <molecule_chembl_id>
CHEMBL3576997

> <standard_value>
390

> <IC50_uM>
0.39

> <Activity>
Yes

> <Canonical_Smiles>
CC(C)=CCn1ccnc1/C=C/C(=O)/C=C/c1nccn1CC=C(C)C

$$$$

  SciTegic03142313312D

 20 21  0  0  0  0            999 V2000
    1.6317   -2.2458    0.0000 C   0  0
    0.7500   -1.0323    0.0000 N   0  0
    1.2135    0.3943    0.0000 C   0  0
    0.0000    1.2760    0.0000 C   0  0
    0.0000    2.7760    0.0000 Br  0  0
   -1.2135    0.3943    0.0000 C   0  0
   -2.6394    0.8543    0.0000 C   0  0
   -3.7533   -0.1515    0.0000 C   0  0
   -5.1816    0.3093    0.0000 C   0  0
   -5.4961    1.7759    0.0000 O   0  0
   -6.2955   -0.6966    0.0000 C   0  0
   -7.7238   -0.2358    0.0000 C   0  0
   -8.8377   -1.2416    0.0000 C   0  0
   -8.6595   -2.7182    0.0000 N   0  0
  -10.0277   -3.3331    0.0000 N   0  0
  -10.3344   -4.8014    0.0000 C   0  0
  -11.0353   -2.2219    0.0000 C   0  0
  -10.2898   -0.9203    0.0000 C   0  0
  -10.8966    0.4516    0.0000 Br  0  0
   -0.7500   -1.0323    0.0000 N   0  0
  1  2  1  0
  2  3  1  0
  3  4  2  0
  4  5  1  0
  4  6  1  0
  6  7  1  0
  7  8  2  0
  8  9  1  0
  9 10  2  0
  9 11  1  0
 11 12  2  0
 12 13  1  0
 13 14  2  0
 14 15  1  0
 15 16  1  0
 15 17  1  0
 17 18  2  0
 18 13  1  0
 18 19  1  0
  6 20  2  0
 20  2  1  0
M  END
> <assay_chembl_id>
CHEMBL3579909

> <assay_description>
Antiproliferative activity against human LNCAP cells assessed as inhibition of cell proliferation after 3 days by WST1 assay

> <document_journal>
J Med Chem

> <molecule_chembl_id>
CHEMBL3577001

> <standard_value>
310

> <IC50_uM>
0.31

> <Activity>
Yes

> <Canonical_Smiles>
Cn1cc(Br)c(/C=C/C(=O)/C=C/c2nn(C)cc2Br)n1

$$$$

  SciTegic03142313312D

 18 19  0  0  0  0            999 V2000
    1.6317   -2.2458    0.0000 C   0  0
    0.7500   -1.0323    0.0000 C   0  0
    1.2135    0.3943    0.0000 C   0  0
    0.0000    1.2760    0.0000 S   0  0
   -1.2135    0.3943    0.0000 C   0  0
   -2.6394    0.8543    0.0000 C   0  0
   -3.7533   -0.1515    0.0000 C   0  0
   -5.1816    0.3093    0.0000 C   0  0
   -5.4961    1.7759    0.0000 O   0  0
   -6.2955   -0.6966    0.0000 C   0  0
   -7.7238   -0.2358    0.0000 C   0  0
   -8.8377   -1.2416    0.0000 C   0  0
  -10.2898   -0.9203    0.0000 N   0  0
  -11.0353   -2.2219    0.0000 C   0  0
  -12.5265   -2.3839    0.0000 C   0  0
  -10.0277   -3.3331    0.0000 C   0  0
   -8.6595   -2.7182    0.0000 S   0  0
   -0.7500   -1.0323    0.0000 N   0  0
  1  2  1  0
  2  3  2  0
  3  4  1  0
  4  5  1  0
  5  6  1  0
  6  7  2  0
  7  8  1  0
  8  9  2  0
  8 10  1  0
 10 11  2  0
 11 12  1  0
 12 13  2  0
 13 14  1  0
 14 15  1  0
 14 16  2  0
 16 17  1  0
 17 12  1  0
  5 18  2  0
 18  2  1  0
M  END
> <assay_chembl_id>
CHEMBL3579909

> <assay_description>
Antiproliferative activity against human LNCAP cells assessed as inhibition of cell proliferation after 3 days by WST1 assay

> <document_journal>
J Med Chem

> <molecule_chembl_id>
CHEMBL3577004

> <standard_value>
460

> <IC50_uM>
0.46

> <Activity>
Yes

> <Canonical_Smiles>
Cc1csc(/C=C/C(=O)/C=C/c2nc(C)cs2)n1

$$$$

  SciTegic03142313312D

 26 27  0  0  0  0            999 V2000
    1.6317   -2.2458    0.0000 C   0  0
    0.7500   -1.0323    0.0000 C   0  0
    1.2135    0.3943    0.0000 N   0  0
    0.0000    1.2760    0.0000 C   0  0
    0.0000    2.7742    0.0000 C   0  0
    1.2985    3.5251    0.0000 F   0  0
   -1.2993    3.5238    0.0000 F   0  0
   -0.0007    4.2742    0.0000 F   0  0
   -1.2135    0.3943    0.0000 C   0  0
   -2.6394    0.8543    0.0000 C   0  0
   -3.7533   -0.1515    0.0000 C   0  0
   -5.1816    0.3093    0.0000 C   0  0
   -5.4961    1.7759    0.0000 O   0  0
   -6.2955   -0.6966    0.0000 C   0  0
   -7.7238   -0.2358    0.0000 C   0  0
   -8.8377   -1.2416    0.0000 C   0  0
   -8.6595   -2.7182    0.0000 S   0  0
  -10.0277   -3.3331    0.0000 C   0  0
  -10.3344   -4.8014    0.0000 C   0  0
  -11.0353   -2.2219    0.0000 N   0  0
  -10.2898   -0.9203    0.0000 C   0  0
  -10.8935    0.4509    0.0000 C   0  0
  -12.3845    0.6150    0.0000 F   0  0
  -10.0063    1.6604    0.0000 F   0  0
  -11.4971    1.8241    0.0000 F   0  0
   -0.7500   -1.0323    0.0000 S   0  0
  1  2  1  0
  2  3  2  0
  3  4  1  0
  4  5  1  0
  5  6  1  0
  5  7  1  0
  5  8  1  0
  4  9  2  0
  9 10  1  0
 10 11  2  0
 11 12  1  0
 12 13  2  0
 12 14  1  0
 14 15  2  0
 15 16  1  0
 16 17  1  0
 17 18  1  0
 18 19  1  0
 18 20  2  0
 20 21  1  0
 21 16  2  0
 21 22  1  0
 22 23  1  0
 22 24  1  0
 22 25  1  0
  9 26  1  0
 26  2  1  0
M  END
> <assay_chembl_id>
CHEMBL3579909

> <assay_description>
Antiproliferative activity against human LNCAP cells assessed as inhibition of cell proliferation after 3 days by WST1 assay

> <document_journal>
J Med Chem

> <molecule_chembl_id>
CHEMBL3577006

> <standard_value>
600

> <IC50_uM>
0.6

> <Activity>
Yes

> <Canonical_Smiles>
Cc1nc(C(F)(F)F)c(/C=C/C(=O)/C=C/c2sc(C)nc2C(F)(F)F)s1

$$$$

  SciTegic03142313312D

 20 21  0  0  0  0            999 V2000
    2.5981   -1.5000    0.0000 C   0  0
    1.2990   -0.7500    0.0000 C   0  0
    1.2990    0.7500    0.0000 C   0  0
    0.0000    1.5000    0.0000 C   0  0
   -1.2990    0.7500    0.0000 C   0  0
   -1.2990   -0.7500    0.0000 C   0  0
   -2.5972   -1.5031    0.0000 C   0  0
   -2.5951   -3.0039    0.0000 C   0  0
   -3.8933   -3.7570    0.0000 C   0  0
   -5.1937   -3.0093    0.0000 O   0  0
   -3.8912   -5.2578    0.0000 C   0  0
   -5.1894   -6.0109    0.0000 C   0  0
   -5.1872   -7.5117    0.0000 C   0  0
   -6.4836   -8.2663    0.0000 C   0  0
   -6.4784   -9.7663    0.0000 C   0  0
   -5.1768  -10.5118    0.0000 C   0  0
   -3.8804   -9.7573    0.0000 C   0  0
   -2.5788  -10.5028    0.0000 C   0  0
   -3.8856   -8.2573    0.0000 N   0  0
    0.0000   -1.5000    0.0000 N   0  0
  1  2  1  0
  2  3  2  0
  3  4  1  0
  4  5  2  0
  5  6  1  0
  6  7  1  0
  7  8  2  0
  8  9  1  0
  9 10  2  0
  9 11  1  0
 11 12  2  0
 12 13  1  0
 13 14  2  0
 14 15  1  0
 15 16  2  0
 16 17  1  0
 17 18  1  0
 17 19  2  0
 19 13  1  0
  6 20  2  0
 20  2  1  0
M  END
> <assay_chembl_id>
CHEMBL3579909

> <assay_description>
Antiproliferative activity against human LNCAP cells assessed as inhibition of cell proliferation after 3 days by WST1 assay

> <document_journal>
J Med Chem

> <molecule_chembl_id>
CHEMBL3577008

> <standard_value>
230

> <IC50_uM>
0.23

> <Activity>
Yes

> <Canonical_Smiles>
Cc1cccc(/C=C/C(=O)/C=C/c2cccc(C)n2)n1

$$$$

  SciTegic03142313312D

 20 21  0  0  0  0            999 V2000
    5.2029   -2.9932    0.0000 O   0  0
    5.2003   -1.4932    0.0000 C   0  0
    3.8990   -0.7455    0.0000 C   0  0
    2.6003   -1.4977    0.0000 C   0  0
    1.2990   -0.7500    0.0000 C   0  0
    1.2990    0.7500    0.0000 C   0  0
    0.0000    1.5000    0.0000 C   0  0
   -1.2990    0.7500    0.0000 N   0  0
   -1.2990   -0.7500    0.0000 C   0  0
    0.0000   -1.5000    0.0000 C   0  0
    0.0000   -3.0000    0.0000 F   0  0
    6.4990   -0.7409    0.0000 C   0  0
    7.8003   -1.4887    0.0000 C   0  0
    9.0990   -0.7364    0.0000 C   0  0
    9.0939    0.7637    0.0000 C   0  0
   10.3903    1.5181    0.0000 C   0  0
   11.6919    0.7726    0.0000 N   0  0
   11.6971   -0.7274    0.0000 C   0  0
   10.4007   -1.4818    0.0000 C   0  0
   10.4059   -2.9818    0.0000 F   0  0
  1  2  2  0
  2  3  1  0
  3  4  2  0
  4  5  1  0
  5  6  2  0
  6  7  1  0
  7  8  2  0
  8  9  1  0
  9 10  2  0
 10  5  1  0
 10 11  1  0
  2 12  1  0
 12 13  2  0
 13 14  1  0
 14 15  2  0
 15 16  1  0
 16 17  2  0
 17 18  1  0
 18 19  2  0
 19 14  1  0
 19 20  1  0
M  END
> <assay_chembl_id>
CHEMBL3579909

> <assay_description>
Antiproliferative activity against human LNCAP cells assessed as inhibition of cell proliferation after 3 days by WST1 assay

> <document_journal>
J Med Chem

> <molecule_chembl_id>
CHEMBL3577011

> <standard_value>
670

> <IC50_uM>
0.67

> <Activity>
Yes

> <Canonical_Smiles>
O=C(/C=C/c1ccncc1F)/C=C/c1ccncc1F

$$$$

  SciTegic03142313312D

 26 29  0  0  0  0            999 V2000
    5.2029   -2.9932    0.0000 O   0  0
    5.2003   -1.4932    0.0000 C   0  0
    3.8990   -0.7455    0.0000 C   0  0
    2.6003   -1.4977    0.0000 C   0  0
    1.2990   -0.7500    0.0000 C   0  0
    1.2990    0.7500    0.0000 C   0  0
    0.0000    1.5000    0.0000 C   0  0
   -1.2990    0.7500    0.0000 N   0  0
   -1.2990   -0.7500    0.0000 C   0  0
   -2.5981   -1.5000    0.0000 C   0  0
   -2.5981   -3.0000    0.0000 C   0  0
   -1.2990   -3.7500    0.0000 C   0  0
    0.0000   -3.0000    0.0000 C   0  0
    0.0000   -1.5000    0.0000 C   0  0
    6.4990   -0.7409    0.0000 C   0  0
    7.8003   -1.4887    0.0000 C   0  0
    9.0990   -0.7364    0.0000 C   0  0
    9.0939    0.7637    0.0000 C   0  0
   10.3903    1.5181    0.0000 C   0  0
   11.6919    0.7726    0.0000 N   0  0
   11.6971   -0.7274    0.0000 C   0  0
   12.9987   -1.4729    0.0000 C   0  0
   13.0039   -2.9729    0.0000 C   0  0
   11.7075   -3.7273    0.0000 C   0  0
   10.4059   -2.9818    0.0000 C   0  0
   10.4007   -1.4818    0.0000 C   0  0
  1  2  2  0
  2  3  1  0
  3  4  2  0
  4  5  1  0
  5  6  2  0
  6  7  1  0
  7  8  2  0
  8  9  1  0
  9 10  2  0
 10 11  1  0
 11 12  2  0
 12 13  1  0
 13 14  2  0
 14  5  1  0
 14  9  1  0
  2 15  1  0
 15 16  2  0
 16 17  1  0
 17 18  2  0
 18 19  1  0
 19 20  2  0
 20 21  1  0
 21 22  2  0
 22 23  1  0
 23 24  2  0
 24 25  1  0
 25 26  2  0
 26 17  1  0
 26 21  1  0
M  END
> <assay_chembl_id>
CHEMBL3579909

> <assay_description>
Antiproliferative activity against human LNCAP cells assessed as inhibition of cell proliferation after 3 days by WST1 assay

> <document_journal>
J Med Chem

> <molecule_chembl_id>
CHEMBL3577013

> <standard_value>
410

> <IC50_uM>
0.41

> <Activity>
Yes

> <Canonical_Smiles>
O=C(/C=C/c1ccnc2ccccc12)/C=C/c1ccnc2ccccc12

$$$$

  SciTegic03142313312D

 26 29  0  0  0  0            999 V2000
   -0.6923   -4.0811    0.0000 C   0  0
    0.3114   -2.9665    0.0000 N   0  0
    1.8032   -3.1233    0.0000 C   0  0
    2.5551   -4.4192    0.0000 C   0  0
    4.0559   -4.4171    0.0000 C   0  0
    4.8090   -5.7153    0.0000 C   0  0
    4.0613   -7.0156    0.0000 O   0  0
    6.3098   -5.7131    0.0000 C   0  0
    7.0629   -7.0113    0.0000 C   0  0
    8.5638   -7.0091    0.0000 C   0  0
    9.4193   -5.7926    0.0000 N   0  0
   10.8467   -6.2511    0.0000 C   0  0
   12.1431   -5.4966    0.0000 C   0  0
   13.4448   -6.2420    0.0000 C   0  0
   13.4500   -7.7420    0.0000 C   0  0
   12.1536   -8.4965    0.0000 C   0  0
   10.8519   -7.7511    0.0000 C   0  0
    9.4278   -8.2196    0.0000 N   0  0
    8.9609   -9.6451    0.0000 C   0  0
    2.4133   -1.7530    0.0000 N   0  0
    1.2990   -0.7500    0.0000 C   0  0
    1.2990    0.7500    0.0000 C   0  0
    0.0000    1.5000    0.0000 C   0  0
   -1.2990    0.7500    0.0000 C   0  0
   -1.2990   -0.7500    0.0000 C   0  0
    0.0000   -1.5000    0.0000 C   0  0
  1  2  1  0
  2  3  1  0
  3  4  1  0
  4  5  2  0
  5  6  1  0
  6  7  2  0
  6  8  1  0
  8  9  2  0
  9 10  1  0
 10 11  2  0
 11 12  1  0
 12 13  2  0
 13 14  1  0
 14 15  2  0
 15 16  1  0
 16 17  2  0
 17 12  1  0
 17 18  1  0
 18 10  1  0
 18 19  1  0
  3 20  2  0
 20 21  1  0
 21 22  2  0
 22 23  1  0
 23 24  2  0
 24 25  1  0
 25 26  2  0
 26 21  1  0
 26  2  1  0
M  END
> <assay_chembl_id>
CHEMBL3579909

> <assay_description>
Antiproliferative activity against human LNCAP cells assessed as inhibition of cell proliferation after 3 days by WST1 assay

> <document_journal>
J Med Chem

> <molecule_chembl_id>
CHEMBL3577017

> <standard_value>
270

> <IC50_uM>
0.27

> <Activity>
Yes

> <Canonical_Smiles>
Cn1c(/C=C/C(=O)/C=C/c2nc3ccccc3n2C)nc2ccccc21

$$$$

  SciTegic03142313312D

 28 31  0  0  0  0            999 V2000
   -0.2237   -5.5078    0.0000 C   0  0
   -0.6890   -4.0818    0.0000 C   0  0
    0.3114   -2.9665    0.0000 N   0  0
    1.8032   -3.1233    0.0000 C   0  0
    2.5551   -4.4192    0.0000 C   0  0
    4.0559   -4.4171    0.0000 C   0  0
    4.8090   -5.7153    0.0000 C   0  0
    4.0613   -7.0156    0.0000 O   0  0
    6.3098   -5.7131    0.0000 C   0  0
    7.0629   -7.0113    0.0000 C   0  0
    8.5638   -7.0091    0.0000 C   0  0
    9.4193   -5.7926    0.0000 N   0  0
   10.8467   -6.2511    0.0000 C   0  0
   12.1431   -5.4966    0.0000 C   0  0
   13.4448   -6.2420    0.0000 C   0  0
   13.4500   -7.7420    0.0000 C   0  0
   12.1536   -8.4965    0.0000 C   0  0
   10.8519   -7.7511    0.0000 C   0  0
    9.4278   -8.2196    0.0000 N   0  0
    8.9562   -9.6416    0.0000 C   0  0
    7.4873   -9.9455    0.0000 C   0  0
    2.4133   -1.7530    0.0000 N   0  0
    1.2990   -0.7500    0.0000 C   0  0
    1.2990    0.7500    0.0000 C   0  0
    0.0000    1.5000    0.0000 C   0  0
   -1.2990    0.7500    0.0000 C   0  0
   -1.2990   -0.7500    0.0000 C   0  0
    0.0000   -1.5000    0.0000 C   0  0
  1  2  1  0
  2  3  1  0
  3  4  1  0
  4  5  1  0
  5  6  2  0
  6  7  1  0
  7  8  2  0
  7  9  1  0
  9 10  2  0
 10 11  1  0
 11 12  2  0
 12 13  1  0
 13 14  2  0
 14 15  1  0
 15 16  2  0
 16 17  1  0
 17 18  2  0
 18 13  1  0
 18 19  1  0
 19 11  1  0
 19 20  1  0
 20 21  1  0
  4 22  2  0
 22 23  1  0
 23 24  2  0
 24 25  1  0
 25 26  2  0
 26 27  1  0
 27 28  2  0
 28 23  1  0
 28  3  1  0
M  END
> <assay_chembl_id>
CHEMBL3579909

> <assay_description>
Antiproliferative activity against human LNCAP cells assessed as inhibition of cell proliferation after 3 days by WST1 assay

> <document_journal>
J Med Chem

> <molecule_chembl_id>
CHEMBL3577018

> <standard_value>
380

> <IC50_uM>
0.38

> <Activity>
Yes

> <Canonical_Smiles>
CCn1c(/C=C/C(=O)/C=C/c2nc3ccccc3n2CC)nc2ccccc21

$$$$

  SciTegic03142313312D

 30 33  0  0  0  0            999 V2000
   -1.2250   -6.6252    0.0000 C   0  0
   -0.2234   -5.5086    0.0000 C   0  0
   -0.6890   -4.0818    0.0000 C   0  0
    0.3114   -2.9665    0.0000 N   0  0
    1.8032   -3.1233    0.0000 C   0  0
    2.5551   -4.4192    0.0000 C   0  0
    4.0559   -4.4171    0.0000 C   0  0
    4.8090   -5.7153    0.0000 C   0  0
    4.0613   -7.0156    0.0000 O   0  0
    6.3098   -5.7131    0.0000 C   0  0
    7.0629   -7.0113    0.0000 C   0  0
    8.5638   -7.0091    0.0000 C   0  0
    9.4193   -5.7926    0.0000 N   0  0
   10.8467   -6.2511    0.0000 C   0  0
   12.1431   -5.4966    0.0000 C   0  0
   13.4448   -6.2420    0.0000 C   0  0
   13.4500   -7.7420    0.0000 C   0  0
   12.1536   -8.4965    0.0000 C   0  0
   10.8519   -7.7511    0.0000 C   0  0
    9.4278   -8.2196    0.0000 N   0  0
    8.9562   -9.6416    0.0000 C   0  0
    7.4865   -9.9456    0.0000 C   0  0
    7.0143  -11.3694    0.0000 C   0  0
    2.4133   -1.7530    0.0000 N   0  0
    1.2990   -0.7500    0.0000 C   0  0
    1.2990    0.7500    0.0000 C   0  0
    0.0000    1.5000    0.0000 C   0  0
   -1.2990    0.7500    0.0000 C   0  0
   -1.2990   -0.7500    0.0000 C   0  0
    0.0000   -1.5000    0.0000 C   0  0
  1  2  1  0
  2  3  1  0
  3  4  1  0
  4  5  1  0
  5  6  1  0
  6  7  2  0
  7  8  1  0
  8  9  2  0
  8 10  1  0
 10 11  2  0
 11 12  1  0
 12 13  2  0
 13 14  1  0
 14 15  2  0
 15 16  1  0
 16 17  2  0
 17 18  1  0
 18 19  2  0
 19 14  1  0
 19 20  1  0
 20 12  1  0
 20 21  1  0
 21 22  1  0
 22 23  1  0
  5 24  2  0
 24 25  1  0
 25 26  2  0
 26 27  1  0
 27 28  2  0
 28 29  1  0
 29 30  2  0
 30 25  1  0
 30  4  1  0
M  END
> <assay_chembl_id>
CHEMBL3579909

> <assay_description>
Antiproliferative activity against human LNCAP cells assessed as inhibition of cell proliferation after 3 days by WST1 assay

> <document_journal>
J Med Chem

> <molecule_chembl_id>
CHEMBL3577019

> <standard_value>
520

> <IC50_uM>
0.52

> <Activity>
Yes

> <Canonical_Smiles>
CCCn1c(/C=C/C(=O)/C=C/c2nc3ccccc3n2CCC)nc2ccccc21

$$$$

  SciTegic03142313312D

 32 35  0  0  0  0            999 V2000
   -0.7603   -8.0518    0.0000 C   0  0
   -1.2256   -6.6258    0.0000 C   0  0
   -0.2234   -5.5086    0.0000 C   0  0
   -0.6890   -4.0818    0.0000 C   0  0
    0.3114   -2.9665    0.0000 N   0  0
    1.8032   -3.1233    0.0000 C   0  0
    2.5551   -4.4192    0.0000 C   0  0
    4.0559   -4.4171    0.0000 C   0  0
    4.8090   -5.7153    0.0000 C   0  0
    4.0613   -7.0156    0.0000 O   0  0
    6.3098   -5.7131    0.0000 C   0  0
    7.0629   -7.0113    0.0000 C   0  0
    8.5638   -7.0091    0.0000 C   0  0
    9.4193   -5.7926    0.0000 N   0  0
   10.8467   -6.2511    0.0000 C   0  0
   12.1431   -5.4966    0.0000 C   0  0
   13.4448   -6.2420    0.0000 C   0  0
   13.4500   -7.7420    0.0000 C   0  0
   12.1536   -8.4965    0.0000 C   0  0
   10.8519   -7.7511    0.0000 C   0  0
    9.4278   -8.2196    0.0000 N   0  0
    8.9562   -9.6416    0.0000 C   0  0
    7.4865   -9.9456    0.0000 C   0  0
    7.0141  -11.3702    0.0000 C   0  0
    5.5452  -11.6740    0.0000 C   0  0
    2.4133   -1.7530    0.0000 N   0  0
    1.2990   -0.7500    0.0000 C   0  0
    1.2990    0.7500    0.0000 C   0  0
    0.0000    1.5000    0.0000 C   0  0
   -1.2990    0.7500    0.0000 C   0  0
   -1.2990   -0.7500    0.0000 C   0  0
    0.0000   -1.5000    0.0000 C   0  0
  1  2  1  0
  2  3  1  0
  3  4  1  0
  4  5  1  0
  5  6  1  0
  6  7  1  0
  7  8  2  0
  8  9  1  0
  9 10  2  0
  9 11  1  0
 11 12  2  0
 12 13  1  0
 13 14  2  0
 14 15  1  0
 15 16  2  0
 16 17  1  0
 17 18  2  0
 18 19  1  0
 19 20  2  0
 20 15  1  0
 20 21  1  0
 21 13  1  0
 21 22  1  0
 22 23  1  0
 23 24  1  0
 24 25  1  0
  6 26  2  0
 26 27  1  0
 27 28  2  0
 28 29  1  0
 29 30  2  0
 30 31  1  0
 31 32  2  0
 32 27  1  0
 32  5  1  0
M  END
> <assay_chembl_id>
CHEMBL3579909

> <assay_description>
Antiproliferative activity against human LNCAP cells assessed as inhibition of cell proliferation after 3 days by WST1 assay

> <document_journal>
J Med Chem

> <molecule_chembl_id>
CHEMBL3577104

> <standard_value>
580

> <IC50_uM>
0.58

> <Activity>
Yes

> <Canonical_Smiles>
CCCCn1c(/C=C/C(=O)/C=C/c2nc3ccccc3n2CCCC)nc2ccccc21

$$$$

  SciTegic03142313312D

 34 37  0  0  0  0            999 V2000
   -1.7616   -9.1692    0.0000 C   0  0
   -0.7600   -8.0526    0.0000 C   0  0
   -1.2256   -6.6258    0.0000 C   0  0
   -0.2234   -5.5086    0.0000 C   0  0
   -0.6890   -4.0818    0.0000 C   0  0
    0.3114   -2.9665    0.0000 N   0  0
    1.8032   -3.1233    0.0000 C   0  0
    2.5551   -4.4192    0.0000 C   0  0
    4.0559   -4.4171    0.0000 C   0  0
    4.8090   -5.7153    0.0000 C   0  0
    4.0613   -7.0156    0.0000 O   0  0
    6.3098   -5.7131    0.0000 C   0  0
    7.0629   -7.0113    0.0000 C   0  0
    8.5638   -7.0091    0.0000 C   0  0
    9.4193   -5.7926    0.0000 N   0  0
   10.8467   -6.2511    0.0000 C   0  0
   12.1431   -5.4966    0.0000 C   0  0
   13.4448   -6.2420    0.0000 C   0  0
   13.4500   -7.7420    0.0000 C   0  0
   12.1536   -8.4965    0.0000 C   0  0
   10.8519   -7.7511    0.0000 C   0  0
    9.4278   -8.2196    0.0000 N   0  0
    8.9562   -9.6416    0.0000 C   0  0
    7.4865   -9.9456    0.0000 C   0  0
    7.0141  -11.3702    0.0000 C   0  0
    5.5443  -11.6742    0.0000 C   0  0
    5.0721  -13.0979    0.0000 C   0  0
    2.4133   -1.7530    0.0000 N   0  0
    1.2990   -0.7500    0.0000 C   0  0
    1.2990    0.7500    0.0000 C   0  0
    0.0000    1.5000    0.0000 C   0  0
   -1.2990    0.7500    0.0000 C   0  0
   -1.2990   -0.7500    0.0000 C   0  0
    0.0000   -1.5000    0.0000 C   0  0
  1  2  1  0
  2  3  1  0
  3  4  1  0
  4  5  1  0
  5  6  1  0
  6  7  1  0
  7  8  1  0
  8  9  2  0
  9 10  1  0
 10 11  2  0
 10 12  1  0
 12 13  2  0
 13 14  1  0
 14 15  2  0
 15 16  1  0
 16 17  2  0
 17 18  1  0
 18 19  2  0
 19 20  1  0
 20 21  2  0
 21 16  1  0
 21 22  1  0
 22 14  1  0
 22 23  1  0
 23 24  1  0
 24 25  1  0
 25 26  1  0
 26 27  1  0
  7 28  2  0
 28 29  1  0
 29 30  2  0
 30 31  1  0
 31 32  2  0
 32 33  1  0
 33 34  2  0
 34 29  1  0
 34  6  1  0
M  END
> <assay_chembl_id>
CHEMBL3579909

> <assay_description>
Antiproliferative activity against human LNCAP cells assessed as inhibition of cell proliferation after 3 days by WST1 assay

> <document_journal>
J Med Chem

> <molecule_chembl_id>
CHEMBL3577105

> <standard_value>
860

> <IC50_uM>
0.86

> <Activity>
Yes

> <Canonical_Smiles>
CCCCCn1c(/C=C/C(=O)/C=C/c2nc3ccccc3n2CCCCC)nc2ccccc21

$$$$

  SciTegic03142313312D

 30 33  0  0  0  0            999 V2000
   -0.2237   -5.5078    0.0000 C   0  0
   -0.6890   -4.0818    0.0000 C   0  0
   -2.1567   -3.7722    0.0000 C   0  0
    0.3114   -2.9665    0.0000 N   0  0
    1.8032   -3.1233    0.0000 C   0  0
    2.5551   -4.4192    0.0000 C   0  0
    4.0559   -4.4171    0.0000 C   0  0
    4.8090   -5.7153    0.0000 C   0  0
    4.0613   -7.0156    0.0000 O   0  0
    6.3098   -5.7131    0.0000 C   0  0
    7.0629   -7.0113    0.0000 C   0  0
    8.5638   -7.0091    0.0000 C   0  0
    9.4193   -5.7926    0.0000 N   0  0
   10.8467   -6.2511    0.0000 C   0  0
   12.1431   -5.4966    0.0000 C   0  0
   13.4448   -6.2420    0.0000 C   0  0
   13.4500   -7.7420    0.0000 C   0  0
   12.1536   -8.4965    0.0000 C   0  0
   10.8519   -7.7511    0.0000 C   0  0
    9.4278   -8.2196    0.0000 N   0  0
    8.9562   -9.6416    0.0000 C   0  0
    7.4873   -9.9455    0.0000 C   0  0
    9.9535  -10.7621    0.0000 C   0  0
    2.4133   -1.7530    0.0000 N   0  0
    1.2990   -0.7500    0.0000 C   0  0
    1.2990    0.7500    0.0000 C   0  0
    0.0000    1.5000    0.0000 C   0  0
   -1.2990    0.7500    0.0000 C   0  0
   -1.2990   -0.7500    0.0000 C   0  0
    0.0000   -1.5000    0.0000 C   0  0
  1  2  1  0
  2  3  1  0
  2  4  1  0
  4  5  1  0
  5  6  1  0
  6  7  2  0
  7  8  1  0
  8  9  2  0
  8 10  1  0
 10 11  2  0
 11 12  1  0
 12 13  2  0
 13 14  1  0
 14 15  2  0
 15 16  1  0
 16 17  2  0
 17 18  1  0
 18 19  2  0
 19 14  1  0
 19 20  1  0
 20 12  1  0
 20 21  1  0
 21 22  1  0
 21 23  1  0
  5 24  2  0
 24 25  1  0
 25 26  2  0
 26 27  1  0
 27 28  2  0
 28 29  1  0
 29 30  2  0
 30 25  1  0
 30  4  1  0
M  END
> <assay_chembl_id>
CHEMBL3579909

> <assay_description>
Antiproliferative activity against human LNCAP cells assessed as inhibition of cell proliferation after 3 days by WST1 assay

> <document_journal>
J Med Chem

> <molecule_chembl_id>
CHEMBL3577108

> <standard_value>
450

> <IC50_uM>
0.45

> <Activity>
Yes

> <Canonical_Smiles>
CC(C)n1c(/C=C/C(=O)/C=C/c2nc3ccccc3n2C(C)C)nc2ccccc21

$$$$

  SciTegic03142313312D

 32 35  0  0  0  0            999 V2000
   -1.2250   -6.6252    0.0000 C   0  0
   -0.2234   -5.5086    0.0000 C   0  0
    1.2443   -5.8182    0.0000 C   0  0
   -0.6890   -4.0818    0.0000 C   0  0
    0.3114   -2.9665    0.0000 N   0  0
    1.8032   -3.1233    0.0000 C   0  0
    2.5551   -4.4192    0.0000 C   0  0
    4.0559   -4.4171    0.0000 C   0  0
    4.8090   -5.7153    0.0000 C   0  0
    4.0613   -7.0156    0.0000 O   0  0
    6.3098   -5.7131    0.0000 C   0  0
    7.0629   -7.0113    0.0000 C   0  0
    8.5638   -7.0091    0.0000 C   0  0
    9.4193   -5.7926    0.0000 N   0  0
   10.8467   -6.2511    0.0000 C   0  0
   12.1431   -5.4966    0.0000 C   0  0
   13.4448   -6.2420    0.0000 C   0  0
   13.4500   -7.7420    0.0000 C   0  0
   12.1536   -8.4965    0.0000 C   0  0
   10.8519   -7.7511    0.0000 C   0  0
    9.4278   -8.2196    0.0000 N   0  0
    8.9562   -9.6416    0.0000 C   0  0
    7.4865   -9.9456    0.0000 C   0  0
    7.0143  -11.3694    0.0000 C   0  0
    6.4893   -8.8251    0.0000 C   0  0
    2.4133   -1.7530    0.0000 N   0  0
    1.2990   -0.7500    0.0000 C   0  0
    1.2990    0.7500    0.0000 C   0  0
    0.0000    1.5000    0.0000 C   0  0
   -1.2990    0.7500    0.0000 C   0  0
   -1.2990   -0.7500    0.0000 C   0  0
    0.0000   -1.5000    0.0000 C   0  0
  1  2  1  0
  2  3  1  0
  2  4  1  0
  4  5  1  0
  5  6  1  0
  6  7  1  0
  7  8  2  0
  8  9  1  0
  9 10  2  0
  9 11  1  0
 11 12  2  0
 12 13  1  0
 13 14  2  0
 14 15  1  0
 15 16  2  0
 16 17  1  0
 17 18  2  0
 18 19  1  0
 19 20  2  0
 20 15  1  0
 20 21  1  0
 21 13  1  0
 21 22  1  0
 22 23  1  0
 23 24  1  0
 23 25  1  0
  6 26  2  0
 26 27  1  0
 27 28  2  0
 28 29  1  0
 29 30  2  0
 30 31  1  0
 31 32  2  0
 32 27  1  0
 32  5  1  0
M  END
> <assay_chembl_id>
CHEMBL3579909

> <assay_description>
Antiproliferative activity against human LNCAP cells assessed as inhibition of cell proliferation after 3 days by WST1 assay

> <document_journal>
J Med Chem

> <molecule_chembl_id>
CHEMBL3577109

> <standard_value>
380

> <IC50_uM>
0.38

> <Activity>
Yes

> <Canonical_Smiles>
CC(C)Cn1c(/C=C/C(=O)/C=C/c2nc3ccccc3n2CC(C)C)nc2ccccc21

$$$$

  SciTegic03142313312D

 32 35  0  0  0  0            999 V2000
   -1.2250   -6.6252    0.0000 C   0  0
   -0.2234   -5.5086    0.0000 C   0  0
   -0.6890   -4.0818    0.0000 C   0  0  3  0  0  0
   -2.1567   -3.7722    0.0000 C   0  0
    0.3114   -2.9665    0.0000 N   0  0
    1.8032   -3.1233    0.0000 C   0  0
    2.5551   -4.4192    0.0000 C   0  0
    4.0559   -4.4171    0.0000 C   0  0
    4.8090   -5.7153    0.0000 C   0  0
    4.0613   -7.0156    0.0000 O   0  0
    6.3098   -5.7131    0.0000 C   0  0
    7.0629   -7.0113    0.0000 C   0  0
    8.5638   -7.0091    0.0000 C   0  0
    9.4193   -5.7926    0.0000 N   0  0
   10.8467   -6.2511    0.0000 C   0  0
   12.1431   -5.4966    0.0000 C   0  0
   13.4448   -6.2420    0.0000 C   0  0
   13.4500   -7.7420    0.0000 C   0  0
   12.1536   -8.4965    0.0000 C   0  0
   10.8519   -7.7511    0.0000 C   0  0
    9.4278   -8.2196    0.0000 N   0  0
    8.9562   -9.6416    0.0000 C   0  0  3  0  0  0
    9.9535  -10.7621    0.0000 C   0  0
    7.4865   -9.9456    0.0000 C   0  0
    7.0143  -11.3694    0.0000 C   0  0
    2.4133   -1.7530    0.0000 N   0  0
    1.2990   -0.7500    0.0000 C   0  0
    1.2990    0.7500    0.0000 C   0  0
    0.0000    1.5000    0.0000 C   0  0
   -1.2990    0.7500    0.0000 C   0  0
   -1.2990   -0.7500    0.0000 C   0  0
    0.0000   -1.5000    0.0000 C   0  0
  1  2  1  0
  2  3  1  0
  3  4  1  4
  3  5  1  0
  5  6  1  0
  6  7  1  0
  7  8  2  0
  8  9  1  0
  9 10  2  0
  9 11  1  0
 11 12  2  0
 12 13  1  0
 13 14  2  0
 14 15  1  0
 15 16  2  0
 16 17  1  0
 17 18  2  0
 18 19  1  0
 19 20  2  0
 20 15  1  0
 20 21  1  0
 21 13  1  0
 21 22  1  0
 22 23  1  4
 22 24  1  0
 24 25  1  0
  6 26  2  0
 26 27  1  0
 27 28  2  0
 28 29  1  0
 29 30  2  0
 30 31  1  0
 31 32  2  0
 32 27  1  0
 32  5  1  0
M  END
> <assay_chembl_id>
CHEMBL3579909

> <assay_description>
Antiproliferative activity against human LNCAP cells assessed as inhibition of cell proliferation after 3 days by WST1 assay

> <document_journal>
J Med Chem

> <molecule_chembl_id>
CHEMBL3577110

> <standard_value>
790

> <IC50_uM>
0.79

> <Activity>
Yes

> <Canonical_Smiles>
CCC(C)n1c(/C=C/C(=O)/C=C/c2nc3ccccc3n2C(C)CC)nc2ccccc21

$$$$

  SciTegic03142313312D

 34 37  0  0  0  0            999 V2000
   -0.7603   -8.0518    0.0000 C   0  0
   -1.2256   -6.6258    0.0000 C   0  0
   -0.2234   -5.5086    0.0000 C   0  0
   -0.6890   -4.0818    0.0000 C   0  0  3  0  0  0
   -2.1567   -3.7722    0.0000 C   0  0
    0.3114   -2.9665    0.0000 N   0  0
    1.8032   -3.1233    0.0000 C   0  0
    2.5551   -4.4192    0.0000 C   0  0
    4.0559   -4.4171    0.0000 C   0  0
    4.8090   -5.7153    0.0000 C   0  0
    4.0613   -7.0156    0.0000 O   0  0
    6.3098   -5.7131    0.0000 C   0  0
    7.0629   -7.0113    0.0000 C   0  0
    8.5638   -7.0091    0.0000 C   0  0
    9.4193   -5.7926    0.0000 N   0  0
   10.8467   -6.2511    0.0000 C   0  0
   12.1431   -5.4966    0.0000 C   0  0
   13.4448   -6.2420    0.0000 C   0  0
   13.4500   -7.7420    0.0000 C   0  0
   12.1536   -8.4965    0.0000 C   0  0
   10.8519   -7.7511    0.0000 C   0  0
    9.4278   -8.2196    0.0000 N   0  0
    8.9562   -9.6416    0.0000 C   0  0  3  0  0  0
    9.9535  -10.7621    0.0000 C   0  0
    7.4865   -9.9456    0.0000 C   0  0
    7.0141  -11.3702    0.0000 C   0  0
    5.5452  -11.6740    0.0000 C   0  0
    2.4133   -1.7530    0.0000 N   0  0
    1.2990   -0.7500    0.0000 C   0  0
    1.2990    0.7500    0.0000 C   0  0
    0.0000    1.5000    0.0000 C   0  0
   -1.2990    0.7500    0.0000 C   0  0
   -1.2990   -0.7500    0.0000 C   0  0
    0.0000   -1.5000    0.0000 C   0  0
  1  2  1  0
  2  3  1  0
  3  4  1  0
  4  5  1  4
  4  6  1  0
  6  7  1  0
  7  8  1  0
  8  9  2  0
  9 10  1  0
 10 11  2  0
 10 12  1  0
 12 13  2  0
 13 14  1  0
 14 15  2  0
 15 16  1  0
 16 17  2  0
 17 18  1  0
 18 19  2  0
 19 20  1  0
 20 21  2  0
 21 16  1  0
 21 22  1  0
 22 14  1  0
 22 23  1  0
 23 24  1  4
 23 25  1  0
 25 26  1  0
 26 27  1  0
  7 28  2  0
 28 29  1  0
 29 30  2  0
 30 31  1  0
 31 32  2  0
 32 33  1  0
 33 34  2  0
 34 29  1  0
 34  6  1  0
M  END
> <assay_chembl_id>
CHEMBL3579909

> <assay_description>
Antiproliferative activity against human LNCAP cells assessed as inhibition of cell proliferation after 3 days by WST1 assay

> <document_journal>
J Med Chem

> <molecule_chembl_id>
CHEMBL3577111

> <standard_value>
700

> <IC50_uM>
0.7

> <Activity>
Yes

> <Canonical_Smiles>
CCCC(C)n1c(/C=C/C(=O)/C=C/c2nc3ccccc3n2C(C)CCC)nc2ccccc21

$$$$

  SciTegic03142313312D

 34 37  0  0  0  0            999 V2000
   -1.2250   -6.6252    0.0000 C   0  0
   -0.2234   -5.5086    0.0000 C   0  0
   -0.6890   -4.0818    0.0000 C   0  0
   -2.1581   -3.7751    0.0000 C   0  0
   -3.1585   -4.8928    0.0000 C   0  0
    0.3114   -2.9665    0.0000 N   0  0
    1.8032   -3.1233    0.0000 C   0  0
    2.5551   -4.4192    0.0000 C   0  0
    4.0559   -4.4171    0.0000 C   0  0
    4.8090   -5.7153    0.0000 C   0  0
    4.0613   -7.0156    0.0000 O   0  0
    6.3098   -5.7131    0.0000 C   0  0
    7.0629   -7.0113    0.0000 C   0  0
    8.5638   -7.0091    0.0000 C   0  0
    9.4193   -5.7926    0.0000 N   0  0
   10.8467   -6.2511    0.0000 C   0  0
   12.1431   -5.4966    0.0000 C   0  0
   13.4448   -6.2420    0.0000 C   0  0
   13.4500   -7.7420    0.0000 C   0  0
   12.1536   -8.4965    0.0000 C   0  0
   10.8519   -7.7511    0.0000 C   0  0
    9.4278   -8.2196    0.0000 N   0  0
    8.9562   -9.6416    0.0000 C   0  0
    7.4865   -9.9456    0.0000 C   0  0
    7.0143  -11.3694    0.0000 C   0  0
    9.9517  -10.7648    0.0000 C   0  0
    9.4779  -12.1880    0.0000 C   0  0
    2.4133   -1.7530    0.0000 N   0  0
    1.2990   -0.7500    0.0000 C   0  0
    1.2990    0.7500    0.0000 C   0  0
    0.0000    1.5000    0.0000 C   0  0
   -1.2990    0.7500    0.0000 C   0  0
   -1.2990   -0.7500    0.0000 C   0  0
    0.0000   -1.5000    0.0000 C   0  0
  1  2  1  0
  2  3  1  0
  3  4  1  0
  4  5  1  0
  3  6  1  0
  6  7  1  0
  7  8  1  0
  8  9  2  0
  9 10  1  0
 10 11  2  0
 10 12  1  0
 12 13  2  0
 13 14  1  0
 14 15  2  0
 15 16  1  0
 16 17  2  0
 17 18  1  0
 18 19  2  0
 19 20  1  0
 20 21  2  0
 21 16  1  0
 21 22  1  0
 22 14  1  0
 22 23  1  0
 23 24  1  0
 24 25  1  0
 23 26  1  0
 26 27  1  0
  7 28  2  0
 28 29  1  0
 29 30  2  0
 30 31  1  0
 31 32  2  0
 32 33  1  0
 33 34  2  0
 34 29  1  0
 34  6  1  0
M  END
> <assay_chembl_id>
CHEMBL3579909

> <assay_description>
Antiproliferative activity against human LNCAP cells assessed as inhibition of cell proliferation after 3 days by WST1 assay

> <document_journal>
J Med Chem

> <molecule_chembl_id>
CHEMBL3577112

> <standard_value>
540

> <IC50_uM>
0.54

> <Activity>
Yes

> <Canonical_Smiles>
CCC(CC)n1c(/C=C/C(=O)/C=C/c2nc3ccccc3n2C(CC)CC)nc2ccccc21

$$$$

  SciTegic03142313312D

 34 37  0  0  0  0            999 V2000
   -0.7603   -8.0518    0.0000 C   0  0
   -1.2256   -6.6258    0.0000 C   0  0
   -2.6933   -6.3162    0.0000 C   0  0
   -0.2234   -5.5086    0.0000 C   0  0
   -0.6890   -4.0818    0.0000 C   0  0
    0.3114   -2.9665    0.0000 N   0  0
    1.8032   -3.1233    0.0000 C   0  0
    2.5551   -4.4192    0.0000 C   0  0
    4.0559   -4.4171    0.0000 C   0  0
    4.8090   -5.7153    0.0000 C   0  0
    4.0613   -7.0156    0.0000 O   0  0
    6.3098   -5.7131    0.0000 C   0  0
    7.0629   -7.0113    0.0000 C   0  0
    8.5638   -7.0091    0.0000 C   0  0
    9.4193   -5.7926    0.0000 N   0  0
   10.8467   -6.2511    0.0000 C   0  0
   12.1431   -5.4966    0.0000 C   0  0
   13.4448   -6.2420    0.0000 C   0  0
   13.4500   -7.7420    0.0000 C   0  0
   12.1536   -8.4965    0.0000 C   0  0
   10.8519   -7.7511    0.0000 C   0  0
    9.4278   -8.2196    0.0000 N   0  0
    8.9562   -9.6416    0.0000 C   0  0
    7.4865   -9.9456    0.0000 C   0  0
    7.0141  -11.3702    0.0000 C   0  0
    5.5452  -11.6740    0.0000 C   0  0
    8.0113  -12.4907    0.0000 C   0  0
    2.4133   -1.7530    0.0000 N   0  0
    1.2990   -0.7500    0.0000 C   0  0
    1.2990    0.7500    0.0000 C   0  0
    0.0000    1.5000    0.0000 C   0  0
   -1.2990    0.7500    0.0000 C   0  0
   -1.2990   -0.7500    0.0000 C   0  0
    0.0000   -1.5000    0.0000 C   0  0
  1  2  1  0
  2  3  1  0
  2  4  1  0
  4  5  1  0
  5  6  1  0
  6  7  1  0
  7  8  1  0
  8  9  2  0
  9 10  1  0
 10 11  2  0
 10 12  1  0
 12 13  2  0
 13 14  1  0
 14 15  2  0
 15 16  1  0
 16 17  2  0
 17 18  1  0
 18 19  2  0
 19 20  1  0
 20 21  2  0
 21 16  1  0
 21 22  1  0
 22 14  1  0
 22 23  1  0
 23 24  1  0
 24 25  1  0
 25 26  1  0
 25 27  1  0
  7 28  2  0
 28 29  1  0
 29 30  2  0
 30 31  1  0
 31 32  2  0
 32 33  1  0
 33 34  2  0
 34 29  1  0
 34  6  1  0
M  END
> <assay_chembl_id>
CHEMBL3579909

> <assay_description>
Antiproliferative activity against human LNCAP cells assessed as inhibition of cell proliferation after 3 days by WST1 assay

> <document_journal>
J Med Chem

> <molecule_chembl_id>
CHEMBL3577113

> <standard_value>
920

> <IC50_uM>
0.92

> <Activity>
Yes

> <Canonical_Smiles>
CC(C)CCn1c(/C=C/C(=O)/C=C/c2nc3ccccc3n2CCC(C)C)nc2ccccc21

$$$$

  SciTegic03142313312D

 33 37  0  0  0  0            999 V2000
   14.4766   -1.1397    0.0000 C   0  0
   13.0526   -0.6685    0.0000 N   0  0
   11.9328   -1.6666    0.0000 C   0  0
   12.7475    0.8010    0.0000 C   0  0
   11.3226    1.2724    0.0000 C   0  0
   11.0175    2.7419    0.0000 O   0  0
    9.5926    3.2133    0.0000 C   0  0
    9.2856    4.6816    0.0000 C   0  0
    7.8605    5.1498    0.0000 C   0  0
    6.7425    4.1497    0.0000 C   0  0
    5.2521    4.3116    0.0000 N   0  0
    4.6588    2.9478    0.0000 C   0  0
    3.1904    2.6376    0.0000 C   0  0
    2.1885    3.7539    0.0000 O   0  0
    2.7248    1.2135    0.0000 N   0  0
    3.6065    0.0000    0.0000 C   0  0
    2.7248   -1.2135    0.0000 C   0  0  3  0  0  0
    3.1905   -2.6376    0.0000 C   0  0
    4.6581   -2.9476    0.0000 Cl  0  0
    1.2990   -0.7500    0.0000 C   0  0
    1.2990    0.7500    0.0000 C   0  0
    0.0000    1.5000    0.0000 C   0  0
   -1.2990    0.7500    0.0000 C   0  0
   -2.5981    1.5000    0.0000 N   0  0
   -1.2990   -0.7500    0.0000 C   0  0
   -2.5981   -1.5000    0.0000 C   0  0
   -2.5981   -3.0000    0.0000 C   0  0
   -1.2990   -3.7500    0.0000 C   0  0
    0.0000   -3.0000    0.0000 C   0  0
    0.0000   -1.5000    0.0000 C   0  0
    5.7489    1.9360    0.0000 C   0  0
    7.0495    2.6815    0.0000 C   0  0
    8.4746    2.2133    0.0000 C   0  0
  1  2  1  0
  2  3  1  0
  2  4  1  0
  4  5  1  0
  5  6  1  0
  6  7  1  0
  7  8  2  0
  8  9  1  0
  9 10  2  0
 10 11  1  0
 11 12  1  0
 12 13  1  0
 13 14  2  0
 13 15  1  0
 15 16  1  0
 16 17  1  0
 17 18  1  4
 18 19  1  0
 17 20  1  0
 20 21  2  0
 21 15  1  0
 21 22  1  0
 22 23  2  0
 23 24  1  0
 23 25  1  0
 25 26  2  0
 26 27  1  0
 27 28  2  0
 28 29  1  0
 29 30  2  0
 30 20  1  0
 30 25  1  0
 12 31  2  0
 31 32  1  0
 32 10  1  0
 32 33  2  0
 33  7  1  0
M  END
> <assay_chembl_id>
CHEMBL3588708

> <assay_description>
Cytotoxicity against human LNCAP cells assessed as inhibition of cell proliferation by MTS assay

> <document_journal>
Bioorg Med Chem

> <molecule_chembl_id>
CHEMBL314487

> <standard_value>
18

> <IC50_uM>
0.018

> <Activity>
Yes

> <Canonical_Smiles>
CN(C)CCOc1ccc2[nH]c(C(=O)N3CC(CCl)c4c3cc(N)c3ccccc43)cc2c1

$$$$

  SciTegic03142313312D

 40 44  0  0  0  0            999 V2000
   14.4766   -1.1397    0.0000 C   0  0
   13.0526   -0.6685    0.0000 N   0  0
   11.9328   -1.6666    0.0000 C   0  0
   12.7475    0.8010    0.0000 C   0  0
   11.3226    1.2724    0.0000 C   0  0
   11.0175    2.7419    0.0000 O   0  0
    9.5926    3.2133    0.0000 C   0  0
    9.2856    4.6816    0.0000 C   0  0
    7.8605    5.1498    0.0000 C   0  0
    6.7425    4.1497    0.0000 C   0  0
    5.2521    4.3116    0.0000 N   0  0
    4.6588    2.9478    0.0000 C   0  0
    3.1904    2.6376    0.0000 C   0  0
    2.1885    3.7539    0.0000 O   0  0
    2.7248    1.2135    0.0000 N   0  0
    3.6065    0.0000    0.0000 C   0  0
    2.7248   -1.2135    0.0000 C   0  0  3  0  0  0
    3.1905   -2.6376    0.0000 C   0  0
    4.6581   -2.9476    0.0000 Cl  0  0
    1.2990   -0.7500    0.0000 C   0  0
    1.2990    0.7500    0.0000 C   0  0
    0.0000    1.5000    0.0000 C   0  0
   -1.2990    0.7500    0.0000 C   0  0
   -2.5973    1.5031    0.0000 N   0  0
   -2.5951    3.0039    0.0000 C   0  0
   -1.2948    3.7516    0.0000 O   0  0
   -3.8933    3.7570    0.0000 O   0  0
   -3.8912    5.2578    0.0000 C   0  0
   -5.1887    6.0105    0.0000 C   0  0
   -3.8884    6.7578    0.0000 C   0  0
   -2.5909    6.0055    0.0000 C   0  0
   -1.2990   -0.7500    0.0000 C   0  0
   -2.5981   -1.5000    0.0000 C   0  0
   -2.5981   -3.0000    0.0000 C   0  0
   -1.2990   -3.7500    0.0000 C   0  0
    0.0000   -3.0000    0.0000 C   0  0
    0.0000   -1.5000    0.0000 C   0  0
    5.7489    1.9360    0.0000 C   0  0
    7.0495    2.6815    0.0000 C   0  0
    8.4746    2.2133    0.0000 C   0  0
  1  2  1  0
  2  3  1  0
  2  4  1  0
  4  5  1  0
  5  6  1  0
  6  7  1  0
  7  8  2  0
  8  9  1  0
  9 10  2  0
 10 11  1  0
 11 12  1  0
 12 13  1  0
 13 14  2  0
 13 15  1  0
 15 16  1  0
 16 17  1  0
 17 18  1  4
 18 19  1  0
 17 20  1  0
 20 21  2  0
 21 15  1  0
 21 22  1  0
 22 23  2  0
 23 24  1  0
 24 25  1  0
 25 26  2  0
 25 27  1  0
 27 28  1  0
 28 29  1  0
 28 30  1  0
 28 31  1  0
 23 32  1  0
 32 33  2  0
 33 34  1  0
 34 35  2  0
 35 36  1  0
 36 37  2  0
 37 20  1  0
 37 32  1  0
 12 38  2  0
 38 39  1  0
 39 10  1  0
 39 40  2  0
 40  7  1  0
M  END
> <assay_chembl_id>
CHEMBL3588708

> <assay_description>
Cytotoxicity against human LNCAP cells assessed as inhibition of cell proliferation by MTS assay

> <document_journal>
Bioorg Med Chem

> <molecule_chembl_id>
CHEMBL3586001

> <standard_value>
218

> <IC50_uM>
0.218

> <Activity>
Yes

> <RemovedSalts>
HCl

> <Canonical_Smiles>
CN(C)CCOc1ccc2[nH]c(C(=O)N3CC(CCl)c4c3cc(NC(=O)OC(C)(C)C)c3ccccc43)cc2c1.Cl

$$$$

  SciTegic03142313312D

 22 23  0  0  0  0            999 V2000
   11.6982   -0.7323    0.0000 C   0  0
   10.4003   -1.4841    0.0000 C   0  0
    9.0990   -0.7364    0.0000 N   0  0
    9.0933    0.7644    0.0000 C   0  0
    7.7919    1.5103    0.0000 C   0  0
    7.8003   -1.4887    0.0000 C   0  0
    6.4990   -0.7409    0.0000 C   0  0
    5.2003   -1.4932    0.0000 C   0  0
    3.8990   -0.7455    0.0000 C   0  0  3  0  0  0
    3.8964    0.7545    0.0000 C   0  0
    2.6003   -1.4977    0.0000 N   0  0
    1.2990   -0.7500    0.0000 C   0  0
    1.2990    0.7500    0.0000 C   0  0
    0.0000    1.5000    0.0000 C   0  0
   -1.2990    0.7500    0.0000 N   0  0
   -1.2990   -0.7500    0.0000 C   0  0
   -2.5981   -1.5000    0.0000 C   0  0
   -2.5981   -3.0000    0.0000 C   0  0
   -3.8971   -3.7500    0.0000 Cl  0  0
   -1.2990   -3.7500    0.0000 C   0  0
    0.0000   -3.0000    0.0000 C   0  0
    0.0000   -1.5000    0.0000 C   0  0
  1  2  1  0
  2  3  1  0
  3  4  1  0
  4  5  1  0
  3  6  1  0
  6  7  1  0
  7  8  1  0
  8  9  1  0
  9 10  1  4
  9 11  1  0
 11 12  1  0
 12 13  2  0
 13 14  1  0
 14 15  2  0
 15 16  1  0
 16 17  2  0
 17 18  1  0
 18 19  1  0
 18 20  2  0
 20 21  1  0
 21 22  2  0
 22 12  1  0
 22 16  1  0
M  END
> <assay_chembl_id>
CHEMBL3590993

> <assay_description>
Cytotoxicity against human LNCAP cells assessed as reduction in cell number incubated for 72 hrs

> <document_journal>
J Med Chem

> <molecule_chembl_id>
CHEMBL76

> <standard_value>
32870

> <IC50_uM>
32.87

> <Activity>
No

> <Canonical_Smiles>
CCN(CC)CCCC(C)Nc1ccnc2cc(Cl)ccc12

$$$$

  SciTegic03142313312D

 33 35  0  0  0  0            999 V2000
    5.1996   -1.4928    0.0000 C   0  0
    3.8990   -0.7455    0.0000 N   0  0
    2.6003   -1.4977    0.0000 C   0  0
    2.6030   -2.9977    0.0000 O   0  0
    1.2990   -0.7500    0.0000 C   0  0
    1.2990    0.7500    0.0000 C   0  0
    0.0000    1.5000    0.0000 C   0  0
   -1.2990    0.7500    0.0000 C   0  0
   -2.5987    1.5004    0.0000 N   0  0
   -3.9492    0.8772    0.0000 C   0  0
   -4.2500   -0.5923    0.0000 S   0  0
   -4.9546    1.9903    0.0000 N   0  0
   -6.4469    1.8311    0.0000 C   0  0
   -7.1532    0.5134    0.0000 C   0  0
   -8.6524    0.4669    0.0000 C   0  0
   -9.4423    1.7421    0.0000 C   0  0
  -10.9424    1.6956    0.0000 C   0  0
  -12.4417    1.6491    0.0000 N   0  0
   -8.7329    3.0637    0.0000 C   0  0
   -9.5233    4.3396    0.0000 C   0  0
  -11.0226    4.2941    0.0000 F   0  0
   -8.8135    5.6610    0.0000 F   0  0
  -10.3126    5.6152    0.0000 F   0  0
   -7.2337    3.1102    0.0000 C   0  0
   -4.2067    3.2905    0.0000 C   0  0
   -4.6149    4.2034    0.0000 O   0  0
   -2.7390    2.9810    0.0000 C   0  0  3  0  0  0
   -1.3218    2.4894    0.0000 C   0  0
   -3.0646    4.4328    0.0000 C   0  0
   -4.0142    4.7464    0.0000 O   0  0
   -1.2990   -0.7500    0.0000 C   0  0
    0.0000   -1.5000    0.0000 C   0  0
    0.0000   -3.0000    0.0000 F   0  0
  1  2  1  0
  2  3  1  0
  3  4  2  0
  3  5  1  0
  5  6  2  0
  6  7  1  0
  7  8  2  0
  8  9  1  0
  9 10  1  0
 10 11  2  0
 10 12  1  0
 12 13  1  0
 13 14  2  0
 14 15  1  0
 15 16  2  0
 16 17  1  0
 17 18  3  0
 16 19  1  0
 19 20  1  0
 20 21  1  0
 20 22  1  0
 20 23  1  0
 19 24  2  0
 24 13  1  0
 12 25  1  0
 25 26  2  0
 25 27  1  0
 27  9  1  0
 27 28  1  4
 27 29  1  0
 29 30  1  0
  8 31  1  0
 31 32  2  0
 32  5  1  0
 32 33  1  0
M  END
> <assay_chembl_id>
CHEMBL3592211

> <assay_description>
Antiproliferative activity against human LNCAP cells after 3 days

> <document_journal>
Eur J Med Chem

> <molecule_chembl_id>
CHEMBL3588965

> <standard_value>
212.2

> <IC50_uM>
0.2122

> <Activity>
Yes

> <Canonical_Smiles>
CNC(=O)c1ccc(N2C(=S)N(c3ccc(C#N)c(C(F)(F)F)c3)C(=O)C2(C)CO)cc1F

$$$$

  SciTegic03142313312D

 34 36  0  0  1  0            999 V2000
    5.1996   -1.4928    0.0000 C   0  0
    3.8990   -0.7455    0.0000 N   0  0
    2.6003   -1.4977    0.0000 C   0  0
    2.6030   -2.9977    0.0000 O   0  0
    1.2990   -0.7500    0.0000 C   0  0
    1.2990    0.7500    0.0000 C   0  0
    0.0000    1.5000    0.0000 C   0  0
   -1.2990    0.7500    0.0000 C   0  0
   -2.5987    1.5004    0.0000 N   0  0
   -3.9492    0.8772    0.0000 C   0  0
   -4.2500   -0.5923    0.0000 S   0  0
   -4.9546    1.9903    0.0000 N   0  0
   -6.4469    1.8311    0.0000 C   0  0
   -7.1532    0.5134    0.0000 C   0  0
   -8.6524    0.4669    0.0000 C   0  0
   -9.4423    1.7421    0.0000 C   0  0
  -10.9424    1.6956    0.0000 C   0  0
  -12.4417    1.6491    0.0000 N   0  0
   -8.7329    3.0637    0.0000 C   0  0
   -9.5233    4.3396    0.0000 C   0  0
  -11.0226    4.2941    0.0000 F   0  0
   -8.8135    5.6610    0.0000 F   0  0
  -10.3126    5.6152    0.0000 F   0  0
   -7.2337    3.1102    0.0000 C   0  0
   -4.2067    3.2905    0.0000 C   0  0
   -4.6149    4.2034    0.0000 O   0  0
   -2.7390    2.9810    0.0000 C   0  0  2  0  0  0
   -1.3218    2.4894    0.0000 C   0  0
   -3.0646    4.4328    0.0000 C   0  0
   -4.4897    4.9034    0.0000 O   0  0
   -4.7956    6.3719    0.0000 C   0  0
   -1.2990   -0.7500    0.0000 C   0  0
    0.0000   -1.5000    0.0000 C   0  0
    0.0000   -3.0000    0.0000 F   0  0
  1  2  1  0
  2  3  1  0
  3  4  2  0
  3  5  1  0
  5  6  2  0
  6  7  1  0
  7  8  2  0
  8  9  1  0
  9 10  1  0
 10 11  2  0
 10 12  1  0
 12 13  1  0
 13 14  2  0
 14 15  1  0
 15 16  2  0
 16 17  1  0
 17 18  3  0
 16 19  1  0
 19 20  1  0
 20 21  1  0
 20 22  1  0
 20 23  1  0
 19 24  2  0
 24 13  1  0
 12 25  1  0
 25 26  2  0
 25 27  1  0
 27  9  1  0
 27 28  1  6
 27 29  1  0
 29 30  1  0
 30 31  1  0
  8 32  1  0
 32 33  2  0
 33  5  1  0
 33 34  1  0
M  END
> <assay_chembl_id>
CHEMBL3592211

> <assay_description>
Antiproliferative activity against human LNCAP cells after 3 days

> <document_journal>
Eur J Med Chem

> <molecule_chembl_id>
CHEMBL3588961

> <standard_value>
184.8

> <IC50_uM>
0.1848

> <Activity>
Yes

> <Canonical_Smiles>
CNC(=O)c1ccc(N2C(=S)N(c3ccc(C#N)c(C(F)(F)F)c3)C(=O)[C@@]2(C)COC)cc1F

$$$$

  SciTegic03142313312D

 34 36  0  0  0  0            999 V2000
    5.1996   -1.4928    0.0000 C   0  0
    3.8990   -0.7455    0.0000 N   0  0
    2.6003   -1.4977    0.0000 C   0  0
    2.6030   -2.9977    0.0000 O   0  0
    1.2990   -0.7500    0.0000 C   0  0
    1.2990    0.7500    0.0000 C   0  0
    0.0000    1.5000    0.0000 C   0  0
   -1.2990    0.7500    0.0000 C   0  0
   -2.5987    1.5004    0.0000 N   0  0
   -3.9492    0.8772    0.0000 C   0  0
   -4.2500   -0.5923    0.0000 S   0  0
   -4.9546    1.9903    0.0000 N   0  0
   -6.4469    1.8311    0.0000 C   0  0
   -7.1532    0.5134    0.0000 C   0  0
   -8.6524    0.4669    0.0000 C   0  0
   -9.4423    1.7421    0.0000 C   0  0
  -10.9424    1.6956    0.0000 C   0  0
  -12.4417    1.6491    0.0000 N   0  0
   -8.7329    3.0637    0.0000 C   0  0
   -9.5233    4.3396    0.0000 C   0  0
  -11.0226    4.2941    0.0000 F   0  0
   -8.8135    5.6610    0.0000 F   0  0
  -10.3126    5.6152    0.0000 F   0  0
   -7.2337    3.1102    0.0000 C   0  0
   -4.2067    3.2905    0.0000 C   0  0
   -4.6149    4.2034    0.0000 O   0  0
   -2.7390    2.9810    0.0000 C   0  0  3  0  0  0
   -1.3218    2.4894    0.0000 C   0  0
   -3.0646    4.4328    0.0000 C   0  0
   -4.4897    4.9034    0.0000 O   0  0
   -4.7956    6.3719    0.0000 C   0  0
   -1.2990   -0.7500    0.0000 C   0  0
    0.0000   -1.5000    0.0000 C   0  0
    0.0000   -3.0000    0.0000 F   0  0
  1  2  1  0
  2  3  1  0
  3  4  2  0
  3  5  1  0
  5  6  2  0
  6  7  1  0
  7  8  2  0
  8  9  1  0
  9 10  1  0
 10 11  2  0
 10 12  1  0
 12 13  1  0
 13 14  2  0
 14 15  1  0
 15 16  2  0
 16 17  1  0
 17 18  3  0
 16 19  1  0
 19 20  1  0
 20 21  1  0
 20 22  1  0
 20 23  1  0
 19 24  2  0
 24 13  1  0
 12 25  1  0
 25 26  2  0
 25 27  1  0
 27  9  1  0
 27 28  1  4
 27 29  1  0
 29 30  1  0
 30 31  1  0
  8 32  1  0
 32 33  2  0
 33  5  1  0
 33 34  1  0
M  END
> <assay_chembl_id>
CHEMBL3592211

> <assay_description>
Antiproliferative activity against human LNCAP cells after 3 days

> <document_journal>
Eur J Med Chem

> <molecule_chembl_id>
CHEMBL3588960

> <standard_value>
344

> <IC50_uM>
0.344

> <Activity>
Yes

> <Canonical_Smiles>
CNC(=O)c1ccc(N2C(=S)N(c3ccc(C#N)c(C(F)(F)F)c3)C(=O)C2(C)COC)cc1F

$$$$

  SciTegic03142313312D

 31 33  0  0  1  0            999 V2000
    5.1996   -1.4928    0.0000 C   0  0
    3.8990   -0.7455    0.0000 N   0  0
    2.6003   -1.4977    0.0000 C   0  0
    2.6030   -2.9977    0.0000 O   0  0
    1.2990   -0.7500    0.0000 C   0  0
    1.2990    0.7500    0.0000 C   0  0
    0.0000    1.5000    0.0000 C   0  0
   -1.2990    0.7500    0.0000 C   0  0
   -2.5987    1.5004    0.0000 N   0  0
   -2.7390    2.9810    0.0000 C   0  0
   -1.6199    3.9799    0.0000 S   0  0
   -4.2067    3.2905    0.0000 N   0  0
   -4.8193    4.6606    0.0000 C   0  0
   -4.0353    5.9336    0.0000 C   0  0
   -4.7489    7.2530    0.0000 C   0  0
   -6.2483    7.2947    0.0000 C   0  0
   -6.9623    8.6148    0.0000 C   0  0
   -7.6759    9.9342    0.0000 N   0  0
   -7.0341    6.0170    0.0000 C   0  0
   -8.5344    6.0587    0.0000 C   0  0
   -9.2488    7.3777    0.0000 F   0  0
   -9.3198    4.7808    0.0000 F   0  0
  -10.0338    6.0997    0.0000 F   0  0
   -6.3205    4.6976    0.0000 C   0  0
   -4.9546    1.9903    0.0000 C   0  0
   -6.4462    1.8312    0.0000 O   0  0
   -3.9492    0.8772    0.0000 C   0  0  2  0  0  0
   -4.2500   -0.5923    0.0000 C   0  0
   -1.2990   -0.7500    0.0000 C   0  0
    0.0000   -1.5000    0.0000 C   0  0
    0.0000   -3.0000    0.0000 F   0  0
  1  2  1  0
  2  3  1  0
  3  4  2  0
  3  5  1  0
  5  6  2  0
  6  7  1  0
  7  8  2  0
  8  9  1  0
  9 10  1  0
 10 11  2  0
 10 12  1  0
 12 13  1  0
 13 14  2  0
 14 15  1  0
 15 16  2  0
 16 17  1  0
 17 18  3  0
 16 19  1  0
 19 20  1  0
 20 21  1  0
 20 22  1  0
 20 23  1  0
 19 24  2  0
 24 13  1  0
 12 25  1  0
 25 26  2  0
 25 27  1  0
 27  9  1  0
 27 28  1  1
  8 29  1  0
 29 30  2  0
 30  5  1  0
 30 31  1  0
M  END
> <assay_chembl_id>
CHEMBL3592211

> <assay_description>
Antiproliferative activity against human LNCAP cells after 3 days

> <document_journal>
Eur J Med Chem

> <molecule_chembl_id>
CHEMBL3588959

> <standard_value>
398.1

> <IC50_uM>
0.3981

> <Activity>
Yes

> <Canonical_Smiles>
CNC(=O)c1ccc(N2C(=S)N(c3ccc(C#N)c(C(F)(F)F)c3)C(=O)[C@@H]2C)cc1F

$$$$

  SciTegic03142313312D

 31 33  0  0  0  0            999 V2000
    5.1996   -1.4928    0.0000 C   0  0
    3.8990   -0.7455    0.0000 N   0  0
    2.6003   -1.4977    0.0000 C   0  0
    2.6030   -2.9977    0.0000 O   0  0
    1.2990   -0.7500    0.0000 C   0  0
    1.2990    0.7500    0.0000 C   0  0
    0.0000    1.5000    0.0000 C   0  0
   -1.2990    0.7500    0.0000 C   0  0
   -2.5987    1.5004    0.0000 N   0  0
   -2.7390    2.9810    0.0000 C   0  0
   -1.6199    3.9799    0.0000 S   0  0
   -4.2067    3.2905    0.0000 N   0  0
   -4.8193    4.6606    0.0000 C   0  0
   -4.0353    5.9336    0.0000 C   0  0
   -4.7489    7.2530    0.0000 C   0  0
   -6.2483    7.2947    0.0000 C   0  0
   -6.9623    8.6148    0.0000 C   0  0
   -7.6759    9.9342    0.0000 N   0  0
   -7.0341    6.0170    0.0000 C   0  0
   -8.5344    6.0587    0.0000 C   0  0
   -9.2488    7.3777    0.0000 F   0  0
   -9.3198    4.7808    0.0000 F   0  0
  -10.0338    6.0997    0.0000 F   0  0
   -6.3205    4.6976    0.0000 C   0  0
   -4.9546    1.9903    0.0000 C   0  0
   -6.4462    1.8312    0.0000 O   0  0
   -3.9492    0.8772    0.0000 C   0  0  3  0  0  0
   -4.2500   -0.5923    0.0000 C   0  0
   -1.2990   -0.7500    0.0000 C   0  0
    0.0000   -1.5000    0.0000 C   0  0
    0.0000   -3.0000    0.0000 F   0  0
  1  2  1  0
  2  3  1  0
  3  4  2  0
  3  5  1  0
  5  6  2  0
  6  7  1  0
  7  8  2  0
  8  9  1  0
  9 10  1  0
 10 11  2  0
 10 12  1  0
 12 13  1  0
 13 14  2  0
 14 15  1  0
 15 16  2  0
 16 17  1  0
 17 18  3  0
 16 19  1  0
 19 20  1  0
 20 21  1  0
 20 22  1  0
 20 23  1  0
 19 24  2  0
 24 13  1  0
 12 25  1  0
 25 26  2  0
 25 27  1  0
 27  9  1  0
 27 28  1  4
  8 29  1  0
 29 30  2  0
 30  5  1  0
 30 31  1  0
M  END
> <assay_chembl_id>
CHEMBL3592211

> <assay_description>
Antiproliferative activity against human LNCAP cells after 3 days

> <document_journal>
Eur J Med Chem

> <molecule_chembl_id>
CHEMBL3589390

> <standard_value>
944.4

> <IC50_uM>
0.9444

> <Activity>
Yes

> <Canonical_Smiles>
CNC(=O)c1ccc(N2C(=S)N(c3ccc(C#N)c(C(F)(F)F)c3)C(=O)C2C)cc1F

$$$$

  SciTegic03142313312D

 35 38  0  0  0  0            999 V2000
   -0.5139   -8.8575    0.0000 C   0  0
   -0.8821   -7.4034    0.0000 N   0  0
   -2.3261   -6.9941    0.0000 C   0  0
   -3.4016   -8.0397    0.0000 O   0  0
   -2.6945   -5.5392    0.0000 C   0  0
   -1.6171   -4.4955    0.0000 C   0  0
   -1.9823   -3.0406    0.0000 C   0  0
   -3.4205   -2.6316    0.0000 C   0  0
   -3.8909   -1.2065    0.0000 N   0  0
   -5.3236   -0.7540    0.0000 C   0  0
   -6.5334   -1.6407    0.0000 S   0  0
   -5.3236    0.7390    0.0000 N   0  0
   -6.5383    1.6203    0.0000 C   0  0
   -6.4933    3.1147    0.0000 C   0  0
   -7.7696    3.9027    0.0000 C   0  0
   -9.0902    3.1914    0.0000 C   0  0
  -10.3673    3.9798    0.0000 C   0  0
  -11.6436    4.7678    0.0000 N   0  0
   -9.1345    1.6920    0.0000 C   0  0
  -10.4558    0.9803    0.0000 C   0  0
  -11.7326    1.7675    0.0000 F   0  0
  -10.4996   -0.5191    0.0000 F   0  0
  -11.7761    0.2683    0.0000 F   0  0
   -7.8581    0.9040    0.0000 C   0  0
   -3.8909    1.2065    0.0000 C   0  0
   -3.4275    2.6331    0.0000 O   0  0
   -3.0162    0.0000    0.0000 C   0  0
   -2.2621    1.2970    0.0000 C   0  0
   -0.7540    1.2970    0.0000 C   0  0
    0.0000    0.0000    0.0000 O   0  0
   -0.7540   -1.2970    0.0000 C   0  0
   -2.2621   -1.2970    0.0000 C   0  0
   -4.5022   -3.6732    0.0000 C   0  0
   -4.1370   -5.1280    0.0000 C   0  0
   -5.2144   -6.1717    0.0000 F   0  0
  1  2  1  0
  2  3  1  0
  3  4  2  0
  3  5  1  0
  5  6  2  0
  6  7  1  0
  7  8  2  0
  8  9  1  0
  9 10  1  0
 10 11  2  0
 10 12  1  0
 12 13  1  0
 13 14  2  0
 14 15  1  0
 15 16  2  0
 16 17  1  0
 17 18  3  0
 16 19  1  0
 19 20  1  0
 20 21  1  0
 20 22  1  0
 20 23  1  0
 19 24  2  0
 24 13  1  0
 12 25  1  0
 25 26  2  0
 25 27  1  0
 27  9  1  0
 27 28  1  0
 28 29  1  0
 29 30  1  0
 30 31  1  0
 31 32  1  0
 32 27  1  0
  8 33  1  0
 33 34  2  0
 34  5  1  0
 34 35  1  0
M  END
> <assay_chembl_id>
CHEMBL3592211

> <assay_description>
Antiproliferative activity against human LNCAP cells after 3 days

> <document_journal>
Eur J Med Chem

> <molecule_chembl_id>
CHEMBL3589387

> <standard_value>
539.8

> <IC50_uM>
0.5398

> <Activity>
Yes

> <Canonical_Smiles>
CNC(=O)c1ccc(N2C(=S)N(c3ccc(C#N)c(C(F)(F)F)c3)C(=O)C23CCOCC3)cc1F

$$$$

  SciTegic03142313312D

 33 36  0  0  1  0            999 V2000
    4.0392   -6.3128    0.0000 N   0  0
    3.2500   -5.0372    0.0000 C   0  0
    2.4603   -3.7609    0.0000 C   0  0
    3.1705   -2.4397    0.0000 C   0  0
    2.3812   -1.1641    0.0000 C   0  0
    0.8871   -1.2105    0.0000 C   0  0
    0.0000    0.0000    0.0000 N   0  0
   -1.5043    0.0000    0.0000 C   0  0
   -2.3910   -1.2099    0.0000 O   0  0
   -1.9556    1.4291    0.0000 C   0  0  1  0  0  0
   -2.4219    2.8581    0.0000 C   0  0
   -3.9262    2.8581    0.0000 C   0  0
   -4.3925    1.4291    0.0000 O   0  0
   -3.1740    0.5415    0.0000 C   0  0
   -0.7521    2.3016    0.0000 N   0  0
   -0.7521    3.8023    0.0000 C   0  0
    0.4843    4.6428    0.0000 C   0  0
    0.3734    6.1387    0.0000 C   0  0
   -0.9776    6.7906    0.0000 C   0  0
   -1.0855    8.2875    0.0000 C   0  0
   -2.4354    8.9417    0.0000 N   0  0
    0.1557    9.1298    0.0000 O   0  0
   -2.2176    5.9465    0.0000 C   0  0
   -3.5686    6.5984    0.0000 F   0  0
   -2.1066    4.4507    0.0000 C   0  0
    0.4513    1.4291    0.0000 C   0  0
    1.8757    1.8992    0.0000 S   0  0
    0.1718   -2.5310    0.0000 C   0  0
    0.9610   -3.8066    0.0000 C   0  0
    0.2505   -5.1286    0.0000 C   0  0
   -1.2487   -5.1752    0.0000 F   0  0
    1.0401   -6.4039    0.0000 F   0  0
   -0.4589   -6.4502    0.0000 F   0  0
  1  2  3  0
  2  3  1  0
  3  4  2  0
  4  5  1  0
  5  6  2  0
  6  7  1  0
  7  8  1  0
  8  9  2  0
  8 10  1  0
 10 11  1  6
 11 12  1  0
 12 13  1  0
 13 14  1  0
 14 10  1  0
 10 15  1  0
 15 16  1  0
 16 17  2  0
 17 18  1  0
 18 19  2  0
 19 20  1  0
 20 21  1  0
 20 22  2  0
 19 23  1  0
 23 24  1  0
 23 25  2  0
 25 16  1  0
 15 26  1  0
 26  7  1  0
 26 27  2  0
  6 28  1  0
 28 29  2  0
 29  3  1  0
 29 30  1  0
 30 31  1  0
 30 32  1  0
 30 33  1  0
M  END
> <assay_chembl_id>
CHEMBL3592211

> <assay_description>
Antiproliferative activity against human LNCAP cells after 3 days

> <document_journal>
Eur J Med Chem

> <molecule_chembl_id>
CHEMBL3589385

> <standard_value>
71.4

> <IC50_uM>
0.0714

> <Activity>
Yes

> <Canonical_Smiles>
N#Cc1ccc(N2C(=O)[C@]3(CCOC3)N(c3ccc(C(N)=O)c(F)c3)C2=S)cc1C(F)(F)F

$$$$

  SciTegic03142313312D

 34 37  0  0  1  0            999 V2000
   -7.0488   -6.2618    0.0000 C   0  0
   -6.2569   -4.9878    0.0000 O   0  0
   -4.7569   -5.0356    0.0000 C   0  0
   -4.0491   -6.3581    0.0000 O   0  0
   -3.9646   -3.7609    0.0000 C   0  0
   -4.6747   -2.4397    0.0000 C   0  0
   -3.8855   -1.1641    0.0000 C   0  0
   -2.3914   -1.2105    0.0000 C   0  0
   -1.5043    0.0000    0.0000 N   0  0
    0.0000    0.0000    0.0000 C   0  0
    0.8867   -1.2099    0.0000 S   0  0
    0.4513    1.4291    0.0000 N   0  0
    1.8764    1.8994    0.0000 C   0  0
    2.2852    3.3377    0.0000 C   0  0
    3.7400    3.7031    0.0000 C   0  0
    4.7839    2.6259    0.0000 C   0  0
    6.2395    2.9916    0.0000 C   0  0
    7.6943    3.3570    0.0000 N   0  0
    4.3729    1.1833    0.0000 C   0  0
    5.4174    0.1056    0.0000 C   0  0
    6.8724    0.4701    0.0000 F   0  0
    5.0060   -1.3369    0.0000 F   0  0
    6.4608   -0.9721    0.0000 F   0  0
    2.9181    0.8179    0.0000 C   0  0
   -0.7521    2.3016    0.0000 C   0  0
   -0.7521    3.8016    0.0000 O   0  0
   -1.9556    1.4291    0.0000 C   0  0  2  0  0  0
   -2.4219    2.8581    0.0000 C   0  0
   -3.9262    2.8581    0.0000 C   0  0
   -4.3925    1.4291    0.0000 O   0  0
   -3.1740    0.5415    0.0000 C   0  0
   -1.6761   -2.5310    0.0000 C   0  0
   -2.4653   -3.8066    0.0000 C   0  0
   -1.7552   -5.1279    0.0000 F   0  0
  1  2  1  0
  2  3  1  0
  3  4  2  0
  3  5  1  0
  5  6  2  0
  6  7  1  0
  7  8  2  0
  8  9  1  0
  9 10  1  0
 10 11  2  0
 10 12  1  0
 12 13  1  0
 13 14  2  0
 14 15  1  0
 15 16  2  0
 16 17  1  0
 17 18  3  0
 16 19  1  0
 19 20  1  0
 20 21  1  0
 20 22  1  0
 20 23  1  0
 19 24  2  0
 24 13  1  0
 12 25  1  0
 25 26  2  0
 25 27  1  0
 27  9  1  0
 27 28  1  1
 28 29  1  0
 29 30  1  0
 30 31  1  0
 31 27  1  0
  8 32  1  0
 32 33  2  0
 33  5  1  0
 33 34  1  0
M  END
> <assay_chembl_id>
CHEMBL3592211

> <assay_description>
Antiproliferative activity against human LNCAP cells after 3 days

> <document_journal>
Eur J Med Chem

> <molecule_chembl_id>
CHEMBL3589383

> <standard_value>
59

> <IC50_uM>
0.059

> <Activity>
Yes

> <Canonical_Smiles>
COC(=O)c1ccc(N2C(=S)N(c3ccc(C#N)c(C(F)(F)F)c3)C(=O)[C@]23CCOC3)cc1F

$$$$

  SciTegic03142313312D

 34 37  0  0  1  0            999 V2000
   -7.0488   -6.2618    0.0000 C   0  0
   -6.2569   -4.9878    0.0000 N   0  0
   -4.7569   -5.0356    0.0000 C   0  0
   -4.0491   -6.3581    0.0000 O   0  0
   -3.9646   -3.7609    0.0000 C   0  0
   -4.6747   -2.4397    0.0000 C   0  0
   -3.8855   -1.1641    0.0000 C   0  0
   -2.3914   -1.2105    0.0000 C   0  0
   -1.5043    0.0000    0.0000 N   0  0
    0.0000    0.0000    0.0000 C   0  0
    0.8867   -1.2099    0.0000 S   0  0
    0.4513    1.4291    0.0000 N   0  0
    1.8764    1.8994    0.0000 C   0  0
    2.2852    3.3377    0.0000 C   0  0
    3.7400    3.7031    0.0000 C   0  0
    4.7839    2.6259    0.0000 C   0  0
    6.2395    2.9916    0.0000 C   0  0
    7.6943    3.3570    0.0000 N   0  0
    4.3729    1.1833    0.0000 C   0  0
    5.4174    0.1056    0.0000 C   0  0
    6.8724    0.4701    0.0000 F   0  0
    5.0060   -1.3369    0.0000 F   0  0
    6.4608   -0.9721    0.0000 F   0  0
    2.9181    0.8179    0.0000 C   0  0
   -0.7521    2.3016    0.0000 C   0  0
   -0.7521    3.8016    0.0000 O   0  0
   -1.9556    1.4291    0.0000 C   0  0  2  0  0  0
   -2.4219    2.8581    0.0000 C   0  0
   -3.9262    2.8581    0.0000 C   0  0
   -4.3925    1.4291    0.0000 O   0  0
   -3.1740    0.5415    0.0000 C   0  0
   -1.6761   -2.5310    0.0000 C   0  0
   -2.4653   -3.8066    0.0000 C   0  0
   -1.7552   -5.1279    0.0000 F   0  0
  1  2  1  0
  2  3  1  0
  3  4  2  0
  3  5  1  0
  5  6  2  0
  6  7  1  0
  7  8  2  0
  8  9  1  0
  9 10  1  0
 10 11  2  0
 10 12  1  0
 12 13  1  0
 13 14  2  0
 14 15  1  0
 15 16  2  0
 16 17  1  0
 17 18  3  0
 16 19  1  0
 19 20  1  0
 20 21  1  0
 20 22  1  0
 20 23  1  0
 19 24  2  0
 24 13  1  0
 12 25  1  0
 25 26  2  0
 25 27  1  0
 27  9  1  0
 27 28  1  1
 28 29  1  0
 29 30  1  0
 30 31  1  0
 31 27  1  0
  8 32  1  0
 32 33  2  0
 33  5  1  0
 33 34  1  0
M  END
> <assay_chembl_id>
CHEMBL3592211

> <assay_description>
Antiproliferative activity against human LNCAP cells after 3 days

> <document_journal>
Eur J Med Chem

> <molecule_chembl_id>
CHEMBL3589381

> <standard_value>
79.2

> <IC50_uM>
0.0792

> <Activity>
Yes

> <Canonical_Smiles>
CNC(=O)c1ccc(N2C(=S)N(c3ccc(C#N)c(C(F)(F)F)c3)C(=O)[C@]23CCOC3)cc1F

$$$$

  SciTegic03142313312D

 34 37  0  0  0  0            999 V2000
   -7.0488   -6.2618    0.0000 C   0  0
   -6.2569   -4.9878    0.0000 N   0  0
   -4.7569   -5.0356    0.0000 C   0  0
   -4.0491   -6.3581    0.0000 O   0  0
   -3.9646   -3.7609    0.0000 C   0  0
   -4.6747   -2.4397    0.0000 C   0  0
   -3.8855   -1.1641    0.0000 C   0  0
   -2.3914   -1.2105    0.0000 C   0  0
   -1.5043    0.0000    0.0000 N   0  0
    0.0000    0.0000    0.0000 C   0  0
    0.8867   -1.2099    0.0000 S   0  0
    0.4513    1.4291    0.0000 N   0  0
    1.8764    1.8994    0.0000 C   0  0
    2.2852    3.3377    0.0000 C   0  0
    3.7400    3.7031    0.0000 C   0  0
    4.7839    2.6259    0.0000 C   0  0
    6.2395    2.9916    0.0000 C   0  0
    7.6943    3.3570    0.0000 N   0  0
    4.3729    1.1833    0.0000 C   0  0
    5.4174    0.1056    0.0000 C   0  0
    6.8724    0.4701    0.0000 F   0  0
    5.0060   -1.3369    0.0000 F   0  0
    6.4608   -0.9721    0.0000 F   0  0
    2.9181    0.8179    0.0000 C   0  0
   -0.7521    2.3016    0.0000 C   0  0
   -0.7521    3.8016    0.0000 O   0  0
   -1.9556    1.4291    0.0000 C   0  0  3  0  0  0
   -2.4219    2.8581    0.0000 C   0  0
   -3.9262    2.8581    0.0000 C   0  0
   -4.3925    1.4291    0.0000 O   0  0
   -3.1740    0.5415    0.0000 C   0  0
   -1.6761   -2.5310    0.0000 C   0  0
   -2.4653   -3.8066    0.0000 C   0  0
   -1.7552   -5.1279    0.0000 F   0  0
  1  2  1  0
  2  3  1  0
  3  4  2  0
  3  5  1  0
  5  6  2  0
  6  7  1  0
  7  8  2  0
  8  9  1  0
  9 10  1  0
 10 11  2  0
 10 12  1  0
 12 13  1  0
 13 14  2  0
 14 15  1  0
 15 16  2  0
 16 17  1  0
 17 18  3  0
 16 19  1  0
 19 20  1  0
 20 21  1  0
 20 22  1  0
 20 23  1  0
 19 24  2  0
 24 13  1  0
 12 25  1  0
 25 26  2  0
 25 27  1  0
 27  9  1  0
 27 28  1  4
 28 29  1  0
 29 30  1  0
 30 31  1  0
 31 27  1  0
  8 32  1  0
 32 33  2  0
 33  5  1  0
 33 34  1  0
M  END
> <assay_chembl_id>
CHEMBL3592211

> <assay_description>
Antiproliferative activity against human LNCAP cells after 3 days

> <document_journal>
Eur J Med Chem

> <molecule_chembl_id>
CHEMBL3589380

> <standard_value>
195.6

> <IC50_uM>
0.1956

> <Activity>
Yes

> <Canonical_Smiles>
CNC(=O)c1ccc(N2C(=S)N(c3ccc(C#N)c(C(F)(F)F)c3)C(=O)C23CCOC3)cc1F

$$$$

  SciTegic03142313312D

 33 36  0  0  0  0            999 V2000
    2.0362    9.1792    0.0000 C   0  0
    2.1364    7.6825    0.0000 N   0  0
    0.8902    6.8462    0.0000 C   0  0
   -0.4563    7.5073    0.0000 O   0  0
    0.9904    5.3487    0.0000 C   0  0
    2.3380    4.6899    0.0000 C   0  0
    2.4412    3.1934    0.0000 C   0  0
    1.2001    2.3589    0.0000 C   0  0
    1.2045    0.8582    0.0000 N   0  0
    0.0000    0.0000    0.0000 C   0  0
   -1.4225    0.4760    0.0000 S   0  0
    0.4517   -1.4303    0.0000 N   0  0
   -0.4355   -2.6408    0.0000 C   0  0
    0.0590   -4.0515    0.0000 C   0  0
   -0.9195   -5.1884    0.0000 N   0  0
   -2.3934   -4.9094    0.0000 C   0  0
   -3.3724   -6.0469    0.0000 C   0  0
   -4.3509   -7.1837    0.0000 N   0  0
   -2.8887   -3.4935    0.0000 C   0  0
   -4.3633   -3.2144    0.0000 C   0  0
   -5.3425   -4.3506    0.0000 F   0  0
   -4.8581   -1.7983    0.0000 F   0  0
   -5.8370   -2.9347    0.0000 F   0  0
   -1.9101   -2.3566    0.0000 C   0  0
    1.9573   -1.4303    0.0000 C   0  0
    2.8382   -2.6444    0.0000 O   0  0
    2.4240    0.0000    0.0000 C   0  0
    3.1015    1.3400    0.0000 C   0  0
    4.4565    0.6474    0.0000 C   0  0
    3.7640   -0.6775    0.0000 C   0  0
   -0.1507    3.0146    0.0000 C   0  0
   -0.2539    4.5110    0.0000 C   0  0
   -1.6015    5.1698    0.0000 F   0  0
  1  2  1  0
  2  3  1  0
  3  4  2  0
  3  5  1  0
  5  6  2  0
  6  7  1  0
  7  8  2  0
  8  9  1  0
  9 10  1  0
 10 11  2  0
 10 12  1  0
 12 13  1  0
 13 14  2  0
 14 15  1  0
 15 16  2  0
 16 17  1  0
 17 18  3  0
 16 19  1  0
 19 20  1  0
 20 21  1  0
 20 22  1  0
 20 23  1  0
 19 24  2  0
 24 13  1  0
 12 25  1  0
 25 26  2  0
 25 27  1  0
 27  9  1  0
 27 28  1  0
 28 29  1  0
 29 30  1  0
 30 27  1  0
  8 31  1  0
 31 32  2  0
 32  5  1  0
 32 33  1  0
M  END
> <assay_chembl_id>
CHEMBL3592211

> <assay_description>
Antiproliferative activity against human LNCAP cells after 3 days

> <document_journal>
Eur J Med Chem

> <molecule_chembl_id>
CHEMBL3183409

> <standard_value>
174

> <IC50_uM>
0.174

> <Activity>
Yes

> <Canonical_Smiles>
CNC(=O)c1ccc(N2C(=S)N(c3cnc(C#N)c(C(F)(F)F)c3)C(=O)C23CCC3)cc1F

$$$$

  SciTegic03142313312D

 32 34  0  0  0  0            999 V2000
    5.1996   -1.4928    0.0000 C   0  0
    3.8990   -0.7455    0.0000 N   0  0
    2.6003   -1.4977    0.0000 C   0  0
    2.6030   -2.9977    0.0000 O   0  0
    1.2990   -0.7500    0.0000 C   0  0
    1.2990    0.7500    0.0000 C   0  0
    0.0000    1.5000    0.0000 C   0  0
   -1.2990    0.7500    0.0000 C   0  0
   -2.5987    1.5004    0.0000 N   0  0
   -3.9492    0.8772    0.0000 C   0  0
   -4.2500   -0.5923    0.0000 S   0  0
   -4.9546    1.9903    0.0000 N   0  0
   -6.4469    1.8311    0.0000 C   0  0
   -7.1532    0.5134    0.0000 C   0  0
   -8.6524    0.4669    0.0000 C   0  0
   -9.4423    1.7421    0.0000 C   0  0
  -10.9424    1.6956    0.0000 C   0  0
  -12.4417    1.6491    0.0000 N   0  0
   -8.7329    3.0637    0.0000 C   0  0
   -9.5233    4.3396    0.0000 C   0  0
  -11.0226    4.2941    0.0000 F   0  0
   -8.8135    5.6610    0.0000 F   0  0
  -10.3126    5.6152    0.0000 F   0  0
   -7.2337    3.1102    0.0000 C   0  0
   -4.2067    3.2905    0.0000 C   0  0
   -4.8190    4.6599    0.0000 O   0  0
   -2.7390    2.9810    0.0000 C   0  0
   -1.3214    2.4906    0.0000 C   0  0
   -3.0655    4.4450    0.0000 C   0  0
   -1.2990   -0.7500    0.0000 C   0  0
    0.0000   -1.5000    0.0000 C   0  0
    0.0000   -3.0000    0.0000 F   0  0
  1  2  1  0
  2  3  1  0
  3  4  2  0
  3  5  1  0
  5  6  2  0
  6  7  1  0
  7  8  2  0
  8  9  1  0
  9 10  1  0
 10 11  2  0
 10 12  1  0
 12 13  1  0
 13 14  2  0
 14 15  1  0
 15 16  2  0
 16 17  1  0
 17 18  3  0
 16 19  1  0
 19 20  1  0
 20 21  1  0
 20 22  1  0
 20 23  1  0
 19 24  2  0
 24 13  1  0
 12 25  1  0
 25 26  2  0
 25 27  1  0
 27  9  1  0
 27 28  1  0
 27 29  1  0
  8 30  1  0
 30 31  2  0
 31  5  1  0
 31 32  1  0
M  END
> <assay_chembl_id>
CHEMBL3592211

> <assay_description>
Antiproliferative activity against human LNCAP cells after 3 days

> <document_journal>
Eur J Med Chem

> <molecule_chembl_id>
CHEMBL1082407

> <standard_value>
127.1

> <IC50_uM>
0.1271

> <Activity>
Yes

> <Canonical_Smiles>
CNC(=O)c1ccc(N2C(=S)N(c3ccc(C#N)c(C(F)(F)F)c3)C(=O)C2(C)C)cc1F

$$$$

  SciTegic03142313312D

 20 21  0  0  1  0            999 V2000
    5.0853    1.6480    0.0000 O   0  0
    5.1593    0.1499    0.0000 C   0  0
    3.8979   -0.6634    0.0000 O   0  0
    2.5625    0.0216    0.0000 C   0  0
    1.2990   -0.7500    0.0000 C   0  0  1  0  0  0
    1.2623   -2.2495    0.0000 O   0  0
    1.2990    0.7500    0.0000 C   0  0
    2.5981    1.5000    0.0000 O   0  0
    0.0000    1.5000    0.0000 C   0  0
   -1.2990    0.7500    0.0000 C   0  0
   -1.2990   -0.7500    0.0000 C   0  0  1  0  0  0
   -2.5981   -1.5000    0.0000 O   0  0
    0.0000   -1.5000    0.0000 C   0  0  2  0  0  0
    0.0000   -3.0000    0.0000 O   0  0
    6.4947   -0.5351    0.0000 C   0  0
    7.7567    0.2759    0.0000 C   0  0
    9.0899   -0.4114    0.0000 C   0  0
    9.1614   -1.9097    0.0000 C   0  0
    7.8995   -2.7207    0.0000 C   0  0
    6.5663   -2.0334    0.0000 C   0  0
  1  2  2  0
  2  3  1  0
  3  4  1  0
  4  5  1  0
  5  6  1  1
  5  7  1  0
  7  8  2  0
  7  9  1  0
  9 10  2  0
 10 11  1  0
 11 12  1  6
 11 13  1  0
 13  5  1  0
 13 14  1  1
  2 15  1  0
 15 16  2  0
 16 17  1  0
 17 18  2  0
 18 19  1  0
 19 20  2  0
 20 15  1  0
M  END
> <assay_chembl_id>
CHEMBL3602810

> <assay_description>
Cytotoxic activity against human LNCAP cells assessed as inhibition of cell growth incubated for 48 hrs by SRB method

> <document_journal>
Bioorg Med Chem Lett

> <molecule_chembl_id>
CHEMBL3601258

> <standard_value>
45430

> <IC50_uM>
45.43

> <Activity>
No

> <Canonical_Smiles>
O=C(OC[C@@]1(O)C(=O)C=C[C@@H](O)[C@@H]1O)c1ccccc1

$$$$

  SciTegic03142313312D

 93102  0  0  1  0            999 V2000
    5.4593   -7.7917    0.0000 C   0  0
    5.6634   -6.3056    0.0000 C   0  0
    7.0526   -5.7398    0.0000 C   0  0
    4.4785   -5.3846    0.0000 C   0  0
    4.6827   -3.8977    0.0000 C   0  0
    3.4977   -2.9767    0.0000 C   0  0
    3.6769   -1.5000    0.0000 C   0  0  2  0  0  0
    5.0373   -0.8682    0.0000 C   0  0
    3.6769    0.0000    0.0000 O   0  0
    2.2503    0.4635    0.0000 C   0  0
    1.8129    1.8983    0.0000 O   0  0
    1.2990   -0.7500    0.0000 C   0  0  2  0  0  0
    1.2990    0.7500    0.0000 C   0  0
    0.0000    1.5000    0.0000 C   0  0
   -1.2990    0.7500    0.0000 C   0  0
   -1.2990   -0.7500    0.0000 C   0  0  1  0  0  0
   -2.5981   -1.5000    0.0000 C   0  0
   -3.8971   -0.7500    0.0000 C   0  0
   -3.8971    0.7500    0.0000 C   0  0  1  0  0  0
   -5.1962    1.5000    0.0000 C   0  0
   -5.1608    0.0004    0.0000 C   0  0
   -6.4772    2.2803    0.0000 C   0  0
   -5.1962    3.0000    0.0000 C   0  0  1  0  0  0
   -6.4975    3.7477    0.0000 O   0  0
   -7.7962    2.9955    0.0000 C   0  0  2  0  0  0
   -7.7910    1.4954    0.0000 O   0  0
   -9.0875    0.7409    0.0000 C   0  0
  -10.3891    1.4864    0.0000 C   0  0  1  0  0  0
  -11.6847    0.7288    0.0000 O   0  0
  -11.6774   -0.7720    0.0000 S   0  0
  -12.9723   -1.5291    0.0000 O   0  0
  -10.3745   -1.5152    0.0000 O   0  0
  -11.6693   -2.2719    0.0000 O   0  5
  -10.3943    2.9864    0.0000 C   0  0  2  0  0  0
  -11.6959    3.7319    0.0000 O   0  0
   -9.0978    3.7409    0.0000 C   0  0  1  0  0  0
   -9.1062    5.2417    0.0000 O   0  0
  -10.4096    5.9857    0.0000 C   0  0  2  0  0  0
  -11.7035    5.2267    0.0000 O   0  0
  -13.0077    5.9677    0.0000 C   0  0  2  0  0  0
  -14.3015    5.2087    0.0000 C   0  0
  -13.0181    7.4677    0.0000 C   0  0  1  0  0  0
  -14.3246    8.2063    0.0000 O   0  0
  -15.6180    7.4451    0.0000 C   0  0  2  0  0  0
  -15.6025    5.9451    0.0000 O   0  0
  -16.8937    5.1816    0.0000 C   0  0  2  0  0  0
  -16.8750    3.6809    0.0000 C   0  0
  -15.5664    2.9459    0.0000 O   0  0
  -15.5477    1.4452    0.0000 S   0  0
  -14.2399    0.7106    0.0000 O   0  0
  -16.8376    0.6795    0.0000 O   0  0
  -15.5298   -0.0547    0.0000 O   0  5
  -18.2004    5.9181    0.0000 C   0  0  1  0  0  0
  -19.4916    5.1546    0.0000 O   0  0
  -18.2160    7.4180    0.0000 C   0  0  2  0  0  0
  -19.5250    8.1522    0.0000 O   0  0
  -20.8158    7.3864    0.0000 C   0  0  2  0  0  0
  -20.7951    5.8865    0.0000 O   0  0
  -22.0836    5.1186    0.0000 C   0  0  2  0  0  0
  -22.0597    3.6179    0.0000 C   0  0
  -20.7494    2.8879    0.0000 O   0  0
  -23.3929    5.8505    0.0000 C   0  0  1  0  0  0
  -24.6815    5.0826    0.0000 O   0  0
  -23.4137    7.3504    0.0000 C   0  0  2  0  0  0
  -24.7252    8.0800    0.0000 O   0  0
  -26.0127    7.3102    0.0000 C   0  0
  -22.1252    8.1183    0.0000 C   0  0  1  0  0  0
  -22.1460    9.6181    0.0000 O   0  0
  -16.9249    8.1815    0.0000 C   0  0  1  0  0  0
  -16.9405    9.6814    0.0000 O   0  0
  -11.7243    8.2267    0.0000 C   0  0  2  0  0  0
  -11.7348    9.7266    0.0000 O   0  0
  -10.4201    7.4857    0.0000 C   0  0  1  0  0  0
   -9.1272    8.2478    0.0000 O   0  0
   -9.1398    9.7486    0.0000 C   0  0  2  0  0  0
  -10.4466   10.4851    0.0000 O   0  0
  -10.4623   11.9850    0.0000 C   0  0
   -9.1711   12.7486    0.0000 C   0  0  1  0  0  0
   -9.1868   14.2485    0.0000 O   0  0
   -7.8643   12.0122    0.0000 C   0  0  2  0  0  0
   -6.5732   12.7757    0.0000 O   0  0
   -7.8487   10.5122    0.0000 C   0  0  1  0  0  0
   -6.5419    9.7759    0.0000 O   0  0
   -3.8971    3.7500    0.0000 C   0  0
   -2.5981    3.0000    0.0000 C   0  0
   -2.5981    1.5000    0.0000 C   0  0  2  0  0  0
   -1.2990    2.2500    0.0000 C   0  0
    0.0000   -1.5000    0.0000 C   0  0  1  0  0  0
   -1.2699   -2.2983    0.0000 C   0  0
    0.1089   -2.9435    0.0000 C   0  0
    1.5795   -3.2390    0.0000 C   0  0
    2.2240   -4.5935    0.0000 O   0  0
    2.2503   -1.9635    0.0000 C   0  0  2  0  0  0
  1  2  2  0
  2  3  1  0
  2  4  1  0
  4  5  1  0
  5  6  1  0
  6  7  1  0
  7  8  1  6
  7  9  1  0
  9 10  1  0
 10 11  2  0
 10 12  1  0
 12 13  1  6
 13 14  1  0
 14 15  2  0
 15 16  1  0
 16 17  1  6
 17 18  1  0
 19 18  1  1
 19 20  1  0
 20 21  1  0
 20 22  1  0
 20 23  1  0
 23 24  1  1
 25 24  1  6
 25 26  1  0
 26 27  1  0
 27 28  1  0
 28 29  1  1
 29 30  1  0
 30 31  2  0
 30 32  2  0
 30 33  1  0
 28 34  1  0
 34 35  1  6
 34 36  1  0
 36 25  1  0
 36 37  1  1
 38 37  1  6
 38 39  1  0
 39 40  1  0
 40 41  1  6
 40 42  1  0
 42 43  1  1
 44 43  1  6
 44 45  1  0
 45 46  1  0
 46 47  1  6
 47 48  1  0
 48 49  1  0
 49 50  2  0
 49 51  2  0
 49 52  1  0
 46 53  1  0
 53 54  1  1
 53 55  1  0
 55 56  1  6
 57 56  1  6
 57 58  1  0
 58 59  1  0
 59 60  1  6
 60 61  1  0
 59 62  1  0
 62 63  1  1
 62 64  1  0
 64 65  1  6
 65 66  1  0
 64 67  1  0
 67 57  1  0
 67 68  1  1
 55 69  1  0
 69 44  1  0
 69 70  1  1
 42 71  1  0
 71 72  1  6
 71 73  1  0
 73 38  1  0
 73 74  1  1
 75 74  1  6
 75 76  1  0
 76 77  1  0
 77 78  1  0
 78 79  1  1
 78 80  1  0
 80 81  1  6
 80 82  1  0
 82 75  1  0
 82 83  1  1
 23 84  1  0
 84 85  1  0
 85 86  1  0
 86 15  1  0
 86 19  1  0
 86 87  1  1
 16 88  1  0
 88 12  1  0
 88 89  1  6
 88 90  1  0
 90 91  1  0
 91 92  2  0
 93 91  1  1
 93 12  1  0
 93  7  1  0
M  CHG  2  33  -1  52  -1
M  END
> <assay_chembl_id>
CHEMBL3602539

> <assay_description>
Cytotoxicity against human LNCAP cells after 48 hrs by SRB assay

> <document_journal>
Bioorg Med Chem Lett

> <molecule_chembl_id>
CHEMBL3601155

> <standard_value>
230

> <IC50_uM>
0.23

> <Activity>
Yes

> <RemovedSalts>
Na+
Na+

> <Canonical_Smiles>
C=C(C)CCC[C@]1(C)OC(=O)[C@]23CC=C4[C@@H](CC[C@H]5C(C)(C)[C@@H](O[C@@H]6OC[C@@H](OS(=O)(=O)[O-])[C@H](O)[C@H]6O[C@@H]6O[C@H](C)[C@@H](O[C@@H]7O[C@H](COS(=O)(=O)[O-])[C@@H](O)[C@H](O[C@@H]8O[C@H](CO)[C@
@H](O)[C@H](OC)[C@H]8O)[C@H]7O)[C@H](O)[C@H]6O[C@@H]6OC[C@@H](O)[C@H](O)[C@H]6O)CC[C@]45C)[C@]2(C)CC(=O)[C@@H]31.[Na+].[Na+]

$$$$

  SciTegic03142313312D

 93102  0  0  1  0            999 V2000
   -6.5139   12.7395    0.0000 C   0  0
   -5.2138   11.9913    0.0000 O   0  0
   -5.2107   10.4905    0.0000 C   0  0  2  0  0  0
   -3.9117    9.7404    0.0000 C   0  0  1  0  0  0
   -3.0457   10.2404    0.0000 O   0  0
   -3.9117    8.2404    0.0000 C   0  0  2  0  0  0
   -2.6105    7.4925    0.0000 O   0  0
   -1.3117    8.2447    0.0000 C   0  0  2  0  0  0
   -0.0101    7.4992    0.0000 C   0  0  1  0  0  0
   -0.0067    6.4992    0.0000 O   0  0
    1.2864    8.2536    0.0000 C   0  0  2  0  0  0
    2.5872    7.5050    0.0000 O   0  0
    3.8864    8.2564    0.0000 C   0  0  1  0  0  0
    5.1876    7.5100    0.0000 C   0  0  2  0  0  0
    5.1918    6.0100    0.0000 O   0  0
    6.4845    8.2637    0.0000 C   0  0  1  0  0  0
    7.7848    7.5142    0.0000 O   0  0
    7.7868    6.0134    0.0000 C   0  0  2  0  0  0
    6.4873    5.2642    0.0000 O   0  0
    6.4863    3.7642    0.0000 C   0  0
    7.7848    3.0133    0.0000 C   0  0  1  0  0  0
    7.7838    1.5133    0.0000 O   0  0
    9.0843    3.7624    0.0000 C   0  0  2  0  0  0
   10.3829    3.0116    0.0000 O   0  0
    9.0853    5.2624    0.0000 C   0  0  1  0  0  0
    9.9517    5.7618    0.0000 O   0  0
    6.4803    9.7638    0.0000 C   0  0  2  0  0  0
    7.7795   10.5152    0.0000 O   0  0
    7.7793   12.0160    0.0000 C   0  0  1  0  0  0
    9.0767   12.7689    0.0000 C   0  0  2  0  0  0
   10.3766   12.0188    0.0000 O   0  0
   11.6767   12.7687    0.0000 C   0  0  1  0  0  0
   11.6742   14.2687    0.0000 C   0  0
   12.9721   15.0208    0.0000 C   0  0
   14.2723   14.2729    0.0000 C   0  0  2  0  0  0
   14.2699   15.7729    0.0000 C   0  0
   15.5701   15.0250    0.0000 C   0  0
   15.5677   16.5251    0.0000 C   0  0
   16.8655   17.2772    0.0000 C   0  0
   18.1658   16.5293    0.0000 C   0  0  2  0  0  0
   17.2638   17.7458    0.0000 C   0  0
   15.7638   17.7361    0.0000 O   0  0
   18.1416   18.9621    0.0000 O   0  0
   19.5696   18.5031    0.0000 C   0  0  1  0  0  0
   20.9332   17.8780    0.0000 C   0  0
   19.3829   19.9787    0.0000 C   0  0
   18.0090   20.5828    0.0000 C   0  0
   17.8443   22.0746    0.0000 C   0  0
   16.4704   22.6787    0.0000 C   0  0
   16.3058   24.1696    0.0000 C   0  0
   15.2612   21.7910    0.0000 C   0  0
   19.5800   16.9951    0.0000 C   0  0  1  0  0  0
   20.4636   15.7830    0.0000 C   0  0
   21.9636   15.7855    0.0000 O   0  0
   19.5839   14.5681    0.0000 C   0  0
   18.1682   15.0293    0.0000 C   0  0  2  0  0  0
   18.3256   13.5376    0.0000 C   0  0
   16.8704   14.2772    0.0000 C   0  0  2  0  0  0
   16.8728   12.7772    0.0000 C   0  0
   15.5750   12.0251    0.0000 C   0  0
   14.2748   12.7729    0.0000 C   0  0  1  0  0  0
   12.9770   12.0208    0.0000 C   0  0
   14.2945   11.3038    0.0000 C   0  0
   11.6619   11.2994    0.0000 C   0  0
    9.0732   14.2689    0.0000 O   0  0
    7.7725   15.0160    0.0000 C   0  0
    6.4752   14.2631    0.0000 C   0  0  1  0  0  0
    5.1753   15.0133    0.0000 O   0  0
    5.1740   16.5141    0.0000 S   0  0
    3.8749   17.2639    0.0000 O   0  0
    6.4727   17.2648    0.0000 O   0  0
    5.1735   18.0141    0.0000 O   0  5
    6.4785   12.7631    0.0000 C   0  0  2  0  0  0
    5.6136   12.2612    0.0000 O   0  0
    5.1791   10.5100    0.0000 O   0  0
    3.8822    9.7564    0.0000 C   0  0  2  0  0  0
    3.0148   10.2539    0.0000 C   0  0
    1.2812    9.7536    0.0000 O   0  0
   -0.0204   10.4992    0.0000 C   0  0  2  0  0  0
   -0.0224   12.0000    0.0000 C   0  0
    1.2758   12.7530    0.0000 O   0  0
    1.2738   14.2538    0.0000 S   0  0
    2.5713   15.0064    0.0000 O   0  0
   -0.0265   15.0016    0.0000 O   0  0
    1.2710   15.7538    0.0000 O   0  5
   -1.3169    9.7447    0.0000 C   0  0  1  0  0  0
   -2.1846   10.2418    0.0000 O   0  0
   -5.2108    7.4905    0.0000 O   0  0
   -6.5099    8.2405    0.0000 C   0  0  2  0  0  0
   -7.8081    7.4875    0.0000 C   0  0
   -7.8060    5.9875    0.0000 O   0  0
   -6.5098    9.7405    0.0000 C   0  0  1  0  0  0
   -7.8088   10.4906    0.0000 O   0  0
  1  2  1  0
  3  2  1  6
  3  4  1  0
  4  5  1  1
  4  6  1  0
  6  7  1  6
  8  7  1  1
  8  9  1  0
  9 10  1  6
  9 11  1  0
 11 12  1  1
 13 12  1  6
 13 14  1  0
 14 15  1  1
 14 16  1  0
 16 17  1  6
 18 17  1  1
 18 19  1  0
 19 20  1  0
 20 21  1  0
 21 22  1  6
 21 23  1  0
 23 24  1  1
 23 25  1  0
 25 18  1  0
 25 26  1  6
 16 27  1  0
 27 28  1  1
 29 28  1  6
 29 30  1  0
 30 31  1  1
 32 31  1  1
 32 33  1  0
 33 34  1  0
 34 35  1  0
 35 36  1  1
 35 37  1  0
 37 38  2  0
 38 39  1  0
 40 39  1  6
 40 41  1  0
 41 42  2  0
 41 43  1  0
 43 44  1  0
 44 45  1  6
 44 46  1  0
 46 47  1  0
 47 48  1  0
 48 49  1  0
 49 50  1  0
 49 51  1  0
 44 52  1  0
 52 40  1  0
 52 53  1  1
 53 54  2  0
 53 55  1  0
 55 56  1  0
 56 40  1  0
 56 57  1  6
 56 58  1  0
 58 37  1  0
 58 59  1  6
 59 60  1  0
 61 60  1  1
 61 35  1  0
 61 62  1  0
 62 32  1  0
 62 63  1  0
 62 64  1  0
 30 65  1  0
 65 66  1  0
 66 67  1  0
 67 68  1  6
 68 69  1  0
 69 70  2  0
 69 71  2  0
 69 72  1  0
 67 73  1  0
 73 29  1  0
 73 74  1  1
 27 75  1  0
 75 76  1  0
 76 13  1  0
 76 77  1  1
 11 78  1  0
 78 79  1  0
 79 80  1  1
 80 81  1  0
 81 82  1  0
 82 83  2  0
 82 84  2  0
 82 85  1  0
 79 86  1  0
 86  8  1  0
 86 87  1  6
  6 88  1  0
 88 89  1  0
 89 90  1  6
 90 91  1  0
 89 92  1  0
 92  3  1  0
 92 93  1  1
M  CHG  2  72  -1  85  -1
M  END
> <assay_chembl_id>
CHEMBL3602539

> <assay_description>
Cytotoxicity against human LNCAP cells after 48 hrs by SRB assay

> <document_journal>
Bioorg Med Chem Lett

> <molecule_chembl_id>
CHEMBL3601066

> <standard_value>
170

> <IC50_uM>
0.17

> <Activity>
Yes

> <RemovedSalts>
Na+
Na+

> <Canonical_Smiles>
CO[C@@H]1[C@@H](O)[C@H](O[C@@H]2[C@@H](O)[C@H](O[C@H]3[C@H](O)[C@@H](O[C@@H]4OC[C@@H](O)[C@H](O)[C@H]4O)[C@H](O[C@H]4[C@H](O[C@H]5CC[C@]6(C)C7=CC[C@]89C(=O)O[C@@](C)(CCCC(C)C)[C@H]8C(=O)C[C@@]9(C)[C@@
H]7CC[C@H]6C5(C)C)OC[C@@H](OS(=O)(=O)[O-])[C@@H]4O)O[C@@H]3C)O[C@H](COS(=O)(=O)[O-])[C@H]2O)O[C@H](CO)[C@H]1O.[Na+].[Na+]

$$$$

  SciTegic03142313312D

 42 46  0  0  1  0            999 V2000
    5.3417    1.2261    0.0000 C   0  0
    4.0974    2.0638    0.0000 C   0  0
    4.2013    3.5602    0.0000 O   0  0
    2.7493    1.4044    0.0000 O   0  0
    2.6454   -0.0929    0.0000 C   0  0
    1.2990   -0.7500    0.0000 C   0  0  2  0  0  0
    1.2990    0.7500    0.0000 C   0  0
    0.0000    1.5000    0.0000 C   0  0
   -1.2990    0.7500    0.0000 C   0  0  1  0  0  0
   -1.2990   -0.7500    0.0000 C   0  0  1  0  0  0
   -2.5981   -1.5000    0.0000 C   0  0
   -3.8971   -0.7500    0.0000 C   0  0
   -3.8971    0.7500    0.0000 C   0  0
   -5.1962    1.5000    0.0000 C   0  0
   -5.1962    3.0000    0.0000 C   0  0
   -3.8971    3.7500    0.0000 C   0  0
   -2.5981    3.0000    0.0000 C   0  0
   -1.2991    3.7500    0.0000 O   0  0
   -2.5981    1.5000    0.0000 C   0  0  2  0  0  0
   -1.2990    2.2500    0.0000 C   0  0
    0.0000   -1.5000    0.0000 C   0  0  1  0  0  0
   -1.2146   -2.3802    0.0000 O   0  0
    0.3061   -2.9572    0.0000 C   0  0  1  0  0  0
   -0.7018   -4.0658    0.0000 O   0  0
   -2.1685   -3.7476    0.0000 C   0  0
   -2.6256   -2.3189    0.0000 C   0  0
   -3.1776   -4.8575    0.0000 O   0  0
    1.7979   -3.1140    0.0000 C   0  0
    2.4080   -1.7437    0.0000 C   0  0  2  0  0  0
    2.7008   -0.7875    0.0000 O   0  0
    3.3870   -2.8636    0.0000 C   0  0  1  0  0  0
    4.3923   -3.9769    0.0000 C   0  0
    4.8538   -2.5499    0.0000 O   0  0
    2.9255   -4.2918    0.0000 C   0  0  1  0  0  0
    3.9310   -5.4049    0.0000 C   0  0
    3.4698   -6.8322    0.0000 C   0  0
    4.4753   -7.9453    0.0000 C   0  0
    2.0030   -7.1464    0.0000 C   0  0
    1.5418   -8.5738    0.0000 C   0  0
    0.9976   -6.0333    0.0000 C   0  0
   -0.4692   -6.3476    0.0000 O   0  0
    1.4588   -4.6060    0.0000 O   0  0
  1  2  1  0
  2  3  2  0
  2  4  1  0
  4  5  1  0
  6  5  1  1
  6  7  1  0
  7  8  1  0
  9  8  1  1
  9 10  1  0
 10 11  1  6
 11 12  1  0
 12 13  2  0
 13 14  1  0
 14 15  1  0
 15 16  2  0
 16 17  1  0
 17 18  2  0
 17 19  1  0
 19 13  1  0
 19  9  1  0
 19 20  1  1
 10 21  1  0
 21  6  1  0
 21 22  1  6
 21 23  1  0
 23 24  1  6
 24 25  1  0
 25 26  1  0
 25 27  2  0
 23 28  1  0
 28 29  1  0
 29  6  1  0
 29 30  1  1
 29 31  1  0
 31 32  1  6
 31 33  1  0
 31 34  1  0
 34 35  1  1
 35 36  1  0
 36 37  1  0
 36 38  2  0
 38 39  1  0
 38 40  1  0
 40 41  2  0
 40 42  1  0
 42 34  1  0
M  END
> <assay_chembl_id>
CHEMBL3607999

> <assay_description>
Cytotoxicity against human LNCAP cells assessed as inhibition of cell proliferation/survival after 72 hrs by resazurin dye reduction assay

> <document_journal>
J Med Chem

> <molecule_chembl_id>
CHEMBL3605562

> <standard_value>
440

> <IC50_uM>
0.44

> <Activity>
Yes

> <Canonical_Smiles>
CC(=O)OC[C@]12CC[C@H]3[C@@H](CC=C4CC=CC(=O)[C@@]43C)[C@]1(O)[C@@H](OC(C)=O)C[C@@]2(O)[C@@](C)(O)[C@H]1CC(C)=C(C)C(=O)O1

$$$$

  SciTegic03142313312D

 38 42  0  0  1  0            999 V2000
    5.3417    1.2261    0.0000 C   0  0
    4.0974    2.0638    0.0000 C   0  0
    4.2013    3.5602    0.0000 O   0  0
    2.7493    1.4044    0.0000 O   0  0
    2.6454   -0.0929    0.0000 C   0  0
    1.2990   -0.7500    0.0000 C   0  0  2  0  0  0
    1.2990    0.7500    0.0000 C   0  0
    0.0000    1.5000    0.0000 C   0  0
   -1.2990    0.7500    0.0000 C   0  0  1  0  0  0
   -1.2990   -0.7500    0.0000 C   0  0  1  0  0  0
   -2.5981   -1.5000    0.0000 C   0  0
   -3.8971   -0.7500    0.0000 C   0  0
   -3.8971    0.7500    0.0000 C   0  0
   -5.1962    1.5000    0.0000 C   0  0
   -5.1962    3.0000    0.0000 C   0  0
   -3.8971    3.7500    0.0000 C   0  0
   -2.5981    3.0000    0.0000 C   0  0
   -1.2991    3.7500    0.0000 O   0  0
   -2.5981    1.5000    0.0000 C   0  0  2  0  0  0
   -1.2990    2.2500    0.0000 C   0  0
    0.0000   -1.5000    0.0000 C   0  0  1  0  0  0
   -1.2146   -2.3802    0.0000 O   0  0
    0.3061   -2.9572    0.0000 C   0  0
    1.7979   -3.1140    0.0000 C   0  0
    2.4080   -1.7437    0.0000 C   0  0  2  0  0  0
    2.7008   -0.7875    0.0000 O   0  0
    3.3870   -2.8636    0.0000 C   0  0  1  0  0  0
    4.3923   -3.9769    0.0000 C   0  0
    4.8538   -2.5499    0.0000 O   0  0
    2.9255   -4.2918    0.0000 C   0  0  1  0  0  0
    3.9310   -5.4049    0.0000 C   0  0
    3.4698   -6.8322    0.0000 C   0  0
    4.4753   -7.9453    0.0000 C   0  0
    2.0030   -7.1464    0.0000 C   0  0
    1.5418   -8.5738    0.0000 C   0  0
    0.9976   -6.0333    0.0000 C   0  0
   -0.4692   -6.3476    0.0000 O   0  0
    1.4588   -4.6060    0.0000 O   0  0
  1  2  1  0
  2  3  2  0
  2  4  1  0
  4  5  1  0
  6  5  1  1
  6  7  1  0
  7  8  1  0
  9  8  1  1
  9 10  1  0
 10 11  1  6
 11 12  1  0
 12 13  2  0
 13 14  1  0
 14 15  1  0
 15 16  2  0
 16 17  1  0
 17 18  2  0
 17 19  1  0
 19 13  1  0
 19  9  1  0
 19 20  1  1
 10 21  1  0
 21  6  1  0
 21 22  1  6
 21 23  1  0
 23 24  1  0
 24 25  1  0
 25  6  1  0
 25 26  1  1
 25 27  1  0
 27 28  1  6
 27 29  1  0
 27 30  1  0
 30 31  1  1
 31 32  1  0
 32 33  1  0
 32 34  2  0
 34 35  1  0
 34 36  1  0
 36 37  2  0
 36 38  1  0
 38 30  1  0
M  END
> <assay_chembl_id>
CHEMBL3607999

> <assay_description>
Cytotoxicity against human LNCAP cells assessed as inhibition of cell proliferation/survival after 72 hrs by resazurin dye reduction assay

> <document_journal>
J Med Chem

> <molecule_chembl_id>
CHEMBL3605564

> <standard_value>
70

> <IC50_uM>
0.07

> <Activity>
Yes

> <Canonical_Smiles>
CC(=O)OC[C@]12CC[C@H]3[C@@H](CC=C4CC=CC(=O)[C@@]43C)[C@]1(O)CC[C@@]2(O)[C@@](C)(O)[C@H]1CC(C)=C(C)C(=O)O1

$$$$

  SciTegic03142313312D

 39 44  0  0  1  0            999 V2000
    2.4750    6.4159    0.0000 C   0  0
    1.1689    5.6782    0.0000 C   0  0
   -0.1227    6.4410    0.0000 O   0  0
    1.1551    4.1775    0.0000 O   0  0
    2.4474    3.4143    0.0000 C   0  0
    2.4328    1.9143    0.0000 C   0  0  2  0  0  0
    1.1965    2.5923    0.0000 C   0  0
    0.0000    1.9143    0.0000 C   0  0
    0.0000    0.4786    0.0000 C   0  0  1  0  0  0
    1.1965    0.0000    0.0000 C   0  0  1  0  0  0
    1.1965   -1.7149    0.0000 C   0  0
    0.0000   -2.4328    0.0000 C   0  0  1  0  0  0
   -1.2762   -3.1507    0.0000 O   0  0
   -1.2762   -1.7149    0.0000 C   0  0  2  0  0  0
   -2.5126   -2.4328    0.0000 C   0  0
   -3.7888   -1.7149    0.0000 C   0  0
   -3.7888    0.0000    0.0000 C   0  0
   -2.5126    0.4786    0.0000 C   0  0
   -2.5047    1.9786    0.0000 O   0  0
   -1.2762    0.0000    0.0000 C   0  0  2  0  0  0
   -1.2683    1.5000    0.0000 C   0  0
    2.4328    0.4786    0.0000 C   0  0  1  0  0  0
    2.7082   -0.9959    0.0000 O   0  0
    4.9853    0.4786    0.0000 C   0  0
    4.9853    1.9143    0.0000 C   0  0
    3.7489    2.5923    0.0000 C   0  0  2  0  0  0
    2.8757    3.0797    0.0000 O   0  0
    5.0579    3.2788    0.0000 C   0  0  1  0  0  0
    6.3663    4.0122    0.0000 C   0  0
    5.0771    4.7787    0.0000 O   0  0
    6.3481    2.5121    0.0000 C   0  0  1  0  0  0
    6.3293    1.0123    0.0000 C   0  0
    7.6189    0.2461    0.0000 C   0  0
    7.6001   -1.2538    0.0000 C   0  0
    8.9272    0.9797    0.0000 C   0  0
   10.2167    0.2135    0.0000 C   0  0
    8.9460    2.4796    0.0000 C   0  0
   10.2543    3.2133    0.0000 O   0  0
    7.6564    3.2458    0.0000 O   0  0
  1  2  1  0
  2  3  2  0
  2  4  1  0
  4  5  1  0
  6  5  1  1
  6  7  1  0
  7  8  1  0
  9  8  1  1
  9 10  1  0
 10 11  1  6
 12 11  1  1
 12 13  1  0
 14 13  1  1
 14 12  1  0
 14 15  1  0
 15 16  1  0
 16 17  2  0
 17 18  1  0
 18 19  2  0
 18 20  1  0
 20  9  1  0
 20 14  1  0
 20 21  1  1
 10 22  1  0
 22  6  1  0
 22 23  1  6
 22 24  1  0
 24 25  1  0
 25 26  1  0
 26  6  1  0
 26 27  1  1
 26 28  1  0
 28 29  1  6
 28 30  1  0
 28 31  1  0
 31 32  1  6
 32 33  1  0
 33 34  1  0
 33 35  2  0
 35 36  1  0
 35 37  1  0
 37 38  2  0
 37 39  1  0
 39 31  1  0
M  END
> <assay_chembl_id>
CHEMBL3607999

> <assay_description>
Cytotoxicity against human LNCAP cells assessed as inhibition of cell proliferation/survival after 72 hrs by resazurin dye reduction assay

> <document_journal>
J Med Chem

> <molecule_chembl_id>
CHEMBL3605565

> <standard_value>
20

> <IC50_uM>
0.02

> <Activity>
Yes

> <Canonical_Smiles>
CC(=O)OC[C@]12CC[C@H]3[C@@H](C[C@H]4O[C@]45CC=CC(=O)[C@]35C)[C@]1(O)CC[C@@]2(O)[C@@](C)(O)[C@H]1CC(C)=C(C)C(=O)O1

$$$$

  SciTegic03142313312D

 39 44  0  0  1  0            999 V2000
    2.4750    6.4159    0.0000 C   0  0
    1.1689    5.6782    0.0000 C   0  0
   -0.1227    6.4410    0.0000 O   0  0
    1.1551    4.1775    0.0000 O   0  0
    2.4474    3.4143    0.0000 C   0  0
    2.4328    1.9143    0.0000 C   0  0  2  0  0  0
    1.1965    2.5923    0.0000 C   0  0
    0.0000    1.9143    0.0000 C   0  0
    0.0000    0.4786    0.0000 C   0  0  1  0  0  0
    1.1965    0.0000    0.0000 C   0  0  1  0  0  0
    1.1965   -1.7149    0.0000 C   0  0
    0.0000   -2.4328    0.0000 C   0  0  2  0  0  0
   -1.2762   -3.1507    0.0000 O   0  0
   -1.2762   -1.7149    0.0000 C   0  0  1  0  0  0
   -2.5126   -2.4328    0.0000 C   0  0
   -3.7888   -1.7149    0.0000 C   0  0
   -3.7888    0.0000    0.0000 C   0  0
   -2.5126    0.4786    0.0000 C   0  0
   -2.5047    1.9786    0.0000 O   0  0
   -1.2762    0.0000    0.0000 C   0  0  2  0  0  0
   -1.2683    1.5000    0.0000 C   0  0
    2.4328    0.4786    0.0000 C   0  0  1  0  0  0
    2.7082   -0.9959    0.0000 O   0  0
    4.9853    0.4786    0.0000 C   0  0
    4.9853    1.9143    0.0000 C   0  0
    3.7489    2.5923    0.0000 C   0  0  2  0  0  0
    2.8757    3.0797    0.0000 O   0  0
    5.0579    3.2788    0.0000 C   0  0  1  0  0  0
    6.3663    4.0122    0.0000 C   0  0
    5.0771    4.7787    0.0000 O   0  0
    6.3481    2.5121    0.0000 C   0  0  1  0  0  0
    6.3293    1.0123    0.0000 C   0  0
    7.6189    0.2461    0.0000 C   0  0
    7.6001   -1.2538    0.0000 C   0  0
    8.9272    0.9797    0.0000 C   0  0
   10.2167    0.2135    0.0000 C   0  0
    8.9460    2.4796    0.0000 C   0  0
   10.2543    3.2133    0.0000 O   0  0
    7.6564    3.2458    0.0000 O   0  0
  1  2  1  0
  2  3  2  0
  2  4  1  0
  4  5  1  0
  6  5  1  1
  6  7  1  0
  7  8  1  0
  9  8  1  1
  9 10  1  0
 10 11  1  6
 12 11  1  6
 12 13  1  0
 14 13  1  6
 14 12  1  0
 14 15  1  0
 15 16  1  0
 16 17  2  0
 17 18  1  0
 18 19  2  0
 18 20  1  0
 20  9  1  0
 20 14  1  0
 20 21  1  1
 10 22  1  0
 22  6  1  0
 22 23  1  6
 22 24  1  0
 24 25  1  0
 25 26  1  0
 26  6  1  0
 26 27  1  1
 26 28  1  0
 28 29  1  6
 28 30  1  0
 28 31  1  0
 31 32  1  6
 32 33  1  0
 33 34  1  0
 33 35  2  0
 35 36  1  0
 35 37  1  0
 37 38  2  0
 37 39  1  0
 39 31  1  0
M  END
> <assay_chembl_id>
CHEMBL3607999

> <assay_description>
Cytotoxicity against human LNCAP cells assessed as inhibition of cell proliferation/survival after 72 hrs by resazurin dye reduction assay

> <document_journal>
J Med Chem

> <molecule_chembl_id>
CHEMBL3605566

> <standard_value>
320

> <IC50_uM>
0.32

> <Activity>
Yes

> <Canonical_Smiles>
CC(=O)OC[C@]12CC[C@H]3[C@@H](C[C@@H]4O[C@@]45CC=CC(=O)[C@]35C)[C@]1(O)CC[C@@]2(O)[C@@](C)(O)[C@H]1CC(C)=C(C)C(=O)O1

$$$$

  SciTegic03142313312D

 34 39  0  0  1  0            999 V2000
    6.5160    8.5192    0.0000 C   0  0
    6.4746    7.0197    0.0000 C   0  0
    7.7525    6.2342    0.0000 C   0  0
    9.0739    6.9457    0.0000 C   0  0
   10.3507    6.1583    0.0000 O   0  0
    7.7111    4.7347    0.0000 C   0  0
    8.9889    3.9492    0.0000 O   0  0
    6.3919    4.0209    0.0000 O   0  0
    5.1139    4.8064    0.0000 C   0  0  2  0  0  0
    3.7930    4.0939    0.0000 C   0  0  1  0  0  0
    2.5164    4.8816    0.0000 C   0  0
    3.7489    2.5923    0.0000 C   0  0  1  0  0  0
    4.9853    1.9143    0.0000 C   0  0
    4.9853    0.4786    0.0000 C   0  0
    2.4328    0.4786    0.0000 C   0  0  1  0  0  0
    1.1965    0.0000    0.0000 C   0  0  2  0  0  0
    1.1965   -1.7149    0.0000 C   0  0
    0.0000   -2.4328    0.0000 C   0  0  1  0  0  0
   -1.2762   -3.1507    0.0000 O   0  0
   -1.2762   -1.7149    0.0000 C   0  0  2  0  0  0
   -2.5126   -2.4328    0.0000 C   0  0  1  0  0  0
   -2.5023   -3.9328    0.0000 O   0  0
   -3.7888   -1.7149    0.0000 C   0  0
   -3.7888    0.0000    0.0000 C   0  0
   -2.5126    0.4786    0.0000 C   0  0
   -2.5047    1.9786    0.0000 O   0  0
   -1.2762    0.0000    0.0000 C   0  0  1  0  0  0
   -1.2683    1.5000    0.0000 C   0  0
    0.0000    0.4786    0.0000 C   0  0  1  0  0  0
    0.0000    1.9143    0.0000 C   0  0
    1.1965    2.5923    0.0000 C   0  0
    2.4328    1.9143    0.0000 C   0  0  2  0  0  0
    2.4522    3.4142    0.0000 C   0  0
    5.1554    6.3059    0.0000 C   0  0
  1  2  1  0
  2  3  2  0
  3  4  1  0
  4  5  1  0
  3  6  1  0
  6  7  2  0
  6  8  1  0
  9  8  1  6
  9 10  1  0
 10 11  1  6
 10 12  1  0
 12 13  1  1
 13 14  1  0
 15 14  1  1
 15 16  1  0
 16 17  1  6
 18 17  1  1
 18 19  1  0
 20 19  1  1
 20 18  1  0
 20 21  1  0
 21 22  1  1
 21 23  1  0
 23 24  2  0
 24 25  1  0
 25 26  2  0
 25 27  1  0
 27 20  1  0
 27 28  1  1
 27 29  1  0
 29 16  1  0
 29 30  1  1
 30 31  1  0
 31 32  1  0
 32 12  1  0
 32 15  1  0
 32 33  1  1
  9 34  1  0
 34  2  1  0
M  END
> <assay_chembl_id>
CHEMBL3607999

> <assay_description>
Cytotoxicity against human LNCAP cells assessed as inhibition of cell proliferation/survival after 72 hrs by resazurin dye reduction assay

> <document_journal>
J Med Chem

> <molecule_chembl_id>
CHEMBL1221986

> <standard_value>
870

> <IC50_uM>
0.87

> <Activity>
Yes

> <Canonical_Smiles>
CC1=C(CO)C(=O)O[C@H]([C@@H](C)[C@H]2CC[C@H]3[C@@H]4C[C@H]5O[C@]56[C@@H](O)C=CC(=O)[C@]6(C)[C@H]4CC[C@]23C)C1

$$$$

  SciTegic03142313312D

 35 40  0  0  1  0            999 V2000
    9.5860   -5.6939    0.0000 C   0  0
    8.0924   -5.5548    0.0000 C   0  0
    7.1891   -6.7522    0.0000 C   0  0
    6.6262   -5.2383    0.0000 N   0  0
    6.4930   -3.7570    0.0000 C   0  0
    5.1945   -3.0045    0.0000 C   0  0
    5.1969   -1.5045    0.0000 C   0  0
    3.8991   -0.7525    0.0000 C   0  0
    2.5987   -1.5004    0.0000 C   0  0
    1.2990   -0.7500    0.0000 C   0  0
    1.2990    0.7500    0.0000 C   0  0
    0.0000    1.5000    0.0000 C   0  0
   -1.2990    0.7500    0.0000 C   0  0
   -2.5981    1.5000    0.0000 C   0  0
   -3.8971    0.7500    0.0000 C   0  0
   -3.8971   -0.7500    0.0000 C   0  0
   -2.5981   -1.5000    0.0000 N   0  0
   -1.2990   -0.7500    0.0000 C   0  0
    0.0000   -1.5000    0.0000 C   0  0
    2.5965   -3.0004    0.0000 C   0  0
    3.8943   -3.7525    0.0000 C   0  0
    7.8464   -3.1402    0.0000 N   0  0
    8.1544   -1.6740    0.0000 C   0  0
    9.5803   -1.2058    0.0000 C   0  0  2  0  0  0
   10.0216    0.2144    0.0000 C   0  0
   11.5216    0.2159    0.0000 C   0  0
   11.9866   -1.2102    0.0000 N   0  0
   13.4110   -1.6747    0.0000 C   0  0
   14.5265   -0.6718    0.0000 O   0  0
   13.7224   -3.1429    0.0000 C   0  0
   14.7044   -4.1707    0.0000 C   0  0
   13.2364   -4.4788    0.0000 C   0  0
   10.7739   -2.0931    0.0000 C   0  0
    8.8466   -4.2581    0.0000 C   0  0
   10.3388   -4.1061    0.0000 O   0  0
  1  2  1  0
  2  3  1  0
  2  4  1  0
  4  5  2  0
  5  6  1  0
  6  7  2  0
  7  8  1  0
  8  9  2  0
  9 10  1  0
 10 11  2  0
 11 12  1  0
 12 13  2  0
 13 14  1  0
 14 15  2  0
 15 16  1  0
 16 17  2  0
 17 18  1  0
 18 13  1  0
 18 19  2  0
 19 10  1  0
  9 20  1  0
 20 21  2  0
 21  6  1  0
  5 22  1  0
 22 23  1  0
 24 23  1  6
 24 25  1  0
 25 26  1  0
 26 27  1  0
 27 28  1  0
 28 29  2  0
 28 30  1  0
 30 31  1  0
 31 32  1  0
 32 30  1  0
 27 33  1  0
 33 24  1  0
 22 34  1  0
 34  2  1  0
 34 35  2  0
M  END
> <assay_chembl_id>
CHEMBL3619929

> <assay_description>
Antiproliferative activity against human LNCAP cells in lipid reduced medium

> <document_journal>
ACS Med Chem Lett

> <molecule_chembl_id>
CHEMBL3617742

> <standard_value>
218.78

> <IC50_uM>
0.21878

> <Activity>
Yes

> <Canonical_Smiles>
CC1(C)N=C(c2ccc(-c3ccc4cccnc4c3)cc2)N(C[C@@H]2CCN(C(=O)C3CC3)C2)C1=O

$$$$

  SciTegic03142313312D

 36 41  0  0  1  0            999 V2000
   -0.6923   -4.0811    0.0000 C   0  0
    0.3114   -2.9665    0.0000 N   0  0
    1.8032   -3.1233    0.0000 N   0  0
    2.4133   -1.7530    0.0000 C   0  0
    1.2990   -0.7500    0.0000 C   0  0
    1.2990    0.7500    0.0000 C   0  0
    0.0000    1.5000    0.0000 C   0  0
    0.0000    3.0008    0.0000 C   0  0
    1.2978    3.7529    0.0000 C   0  0
    1.2954    5.2529    0.0000 C   0  0
   -0.0048    6.0009    0.0000 C   0  0
   -0.0072    7.5016    0.0000 C   0  0
   -1.2234    8.3576    0.0000 N   0  0
   -0.7644    9.7857    0.0000 C   0  0
   -0.1382   11.1487    0.0000 C   0  0
   -2.2532    9.6020    0.0000 C   0  0
    0.7356    9.7904    0.0000 C   0  0
    1.6134   11.0067    0.0000 O   0  0
    1.2036    8.3653    0.0000 N   0  0
    2.6254    7.8930    0.0000 C   0  0
    3.7479    8.8892    0.0000 C   0  0  2  0  0  0
    5.1972    8.5553    0.0000 C   0  0
    5.9538    9.8505    0.0000 C   0  0
    4.9559   10.9703    0.0000 N   0  0
    5.2718   12.4349    0.0000 C   0  0
    6.7000   12.8936    0.0000 O   0  0
    4.1602   13.4433    0.0000 C   0  0
    3.7668   14.8093    0.0000 C   0  0
    2.7613   13.6962    0.0000 C   0  0
    3.5824   10.3673    0.0000 C   0  0
   -1.3026    5.2488    0.0000 C   0  0
   -2.6029    5.9967    0.0000 F   0  0
   -1.3002    3.7488    0.0000 C   0  0
   -1.2990    0.7500    0.0000 C   0  0
   -1.2990   -0.7500    0.0000 C   0  0
    0.0000   -1.5000    0.0000 C   0  0
  1  2  1  0
  2  3  1  0
  3  4  2  0
  4  5  1  0
  5  6  2  0
  6  7  1  0
  7  8  1  0
  8  9  2  0
  9 10  1  0
 10 11  2  0
 11 12  1  0
 12 13  2  0
 13 14  1  0
 14 15  1  0
 14 16  1  0
 14 17  1  0
 17 18  2  0
 17 19  1  0
 19 12  1  0
 19 20  1  0
 21 20  1  1
 21 22  1  0
 22 23  1  0
 23 24  1  0
 24 25  1  0
 25 26  2  0
 25 27  1  0
 27 28  1  0
 28 29  1  0
 29 27  1  0
 24 30  1  0
 30 21  1  0
 11 31  1  0
 31 32  1  0
 31 33  2  0
 33  8  1  0
  7 34  2  0
 34 35  1  0
 35 36  2  0
 36  5  1  0
 36  2  1  0
M  END
> <assay_chembl_id>
CHEMBL3619929

> <assay_description>
Antiproliferative activity against human LNCAP cells in lipid reduced medium

> <document_journal>
ACS Med Chem Lett

> <molecule_chembl_id>
CHEMBL3617744

> <standard_value>
724.44

> <IC50_uM>
0.72444

> <Activity>
Yes

> <Canonical_Smiles>
Cn1ncc2cc(-c3ccc(C4=NC(C)(C)C(=O)N4C[C@@H]4CCN(C(=O)C5CC5)C4)c(F)c3)ccc21

$$$$

  SciTegic03142313312D

 42 47  0  0  1  0            999 V2000
    2.6018   -5.9994    0.0000 C   0  0
    3.9008   -5.2492    0.0000 O   0  0
    3.9014   -3.7484    0.0000 C   0  0
    2.6012   -3.0004    0.0000 C   0  0
    2.5987   -1.5004    0.0000 C   0  0
    1.2990   -0.7500    0.0000 C   0  0  2  0  0  0
    1.2990    0.7500    0.0000 C   0  0
    2.5981    1.5000    0.0000 C   0  0
    2.5981    3.0000    0.0000 C   0  0
    1.2990    3.7500    0.0000 C   0  0
    0.0000    3.0000    0.0000 C   0  0
    0.0000    1.5000    0.0000 C   0  0
   -1.2990    0.7500    0.0000 C   0  0  1  0  0  0
   -2.5973    1.5031    0.0000 N   0  0
   -2.5951    3.0039    0.0000 C   0  0
   -1.2948    3.7516    0.0000 S   0  0
   -3.8933    3.7570    0.0000 N   0  0
   -3.8912    5.2578    0.0000 C   0  0
   -5.1876    6.0124    0.0000 C   0  0
   -5.1824    7.5124    0.0000 C   0  0
   -3.8808    8.2579    0.0000 C   0  0
   -3.8726    9.7587    0.0000 N   0  3
   -2.5699   10.5023    0.0000 O   0  0
   -5.1677   10.5154    0.0000 O   0  5
   -2.5844    7.5034    0.0000 C   0  0
   -2.5896    6.0034    0.0000 C   0  0
   -1.2990   -0.7500    0.0000 C   0  0  1  0  0  0
   -2.4133   -1.7530    0.0000 C   0  0
   -1.8032   -3.1233    0.0000 O   0  0
   -0.3114   -2.9665    0.0000 C   0  0
    0.6924   -4.0811    0.0000 O   0  0
    0.0000   -1.5000    0.0000 C   0  0  2  0  0  0
    1.6104    5.2165    0.0000 O   0  0
    3.1022    5.3733    0.0000 C   0  0
    3.7123    4.0030    0.0000 O   0  0
    3.8967   -0.7484    0.0000 C   0  0
    5.1969   -1.4963    0.0000 C   0  0
    6.4939   -0.7411    0.0000 O   0  0
    6.4894    0.7589    0.0000 C   0  0
    5.1993   -2.9963    0.0000 C   0  0
    6.4987   -3.7473    0.0000 O   0  0
    6.4990   -5.2473    0.0000 C   0  0
  1  2  1  0
  2  3  1  0
  3  4  2  0
  4  5  1  0
  6  5  1  1
  6  7  1  0
  7  8  2  0
  8  9  1  0
  9 10  2  0
 10 11  1  0
 11 12  2  0
 12  7  1  0
 12 13  1  0
 13 14  1  6
 14 15  1  0
 15 16  2  0
 15 17  1  0
 17 18  1  0
 18 19  2  0
 19 20  1  0
 20 21  2  0
 21 22  1  0
 22 23  2  0
 22 24  1  0
 21 25  1  0
 25 26  2  0
 26 18  1  0
 13 27  1  0
 27 28  1  6
 28 29  1  0
 29 30  1  0
 30 31  2  0
 32 30  1  1
 32  6  1  0
 32 27  1  0
 10 33  1  0
 33 34  1  0
 34 35  1  0
 35  9  1  0
  5 36  2  0
 36 37  1  0
 37 38  1  0
 38 39  1  0
 37 40  2  0
 40  3  1  0
 40 41  1  0
 41 42  1  0
M  CHG  2  22   1  24  -1
M  END
> <assay_chembl_id>
CHEMBL3620606

> <assay_description>
Cytotoxicity against human LNCAP cells after 48 hrs by MTT assay

> <document_journal>
Bioorg Med Chem Lett

> <molecule_chembl_id>
CHEMBL3617869

> <standard_value>
53150

> <IC50_uM>
53.15

> <Activity>
No

> <Canonical_Smiles>
COc1cc([C@@H]2c3cc4c(cc3[C@@H](NC(=S)Nc3ccc([N+](=O)[O-])cc3)[C@H]3COC(=O)[C@H]23)OCO4)cc(OC)c1OC

$$$$

  SciTegic03142313312D

 42 47  0  0  1  0            999 V2000
    2.6018   -5.9994    0.0000 C   0  0
    3.9008   -5.2492    0.0000 O   0  0
    3.9014   -3.7484    0.0000 C   0  0
    2.6012   -3.0004    0.0000 C   0  0
    2.5987   -1.5004    0.0000 C   0  0
    1.2990   -0.7500    0.0000 C   0  0  2  0  0  0
    1.2990    0.7500    0.0000 C   0  0
    2.5981    1.5000    0.0000 C   0  0
    2.5981    3.0000    0.0000 C   0  0
    1.2990    3.7500    0.0000 C   0  0
    0.0000    3.0000    0.0000 C   0  0
    0.0000    1.5000    0.0000 C   0  0
   -1.2990    0.7500    0.0000 C   0  0  1  0  0  0
   -2.5973    1.5031    0.0000 N   0  0
   -2.5951    3.0039    0.0000 C   0  0
   -1.2948    3.7516    0.0000 S   0  0
   -3.8933    3.7570    0.0000 N   0  0
   -3.8912    5.2578    0.0000 C   0  0
   -5.1876    6.0124    0.0000 C   0  0
   -6.4893    5.2669    0.0000 C   0  0
   -5.1824    7.5124    0.0000 C   0  0
   -3.8808    8.2579    0.0000 C   0  0
   -3.8756    9.7579    0.0000 C   0  0
   -2.5844    7.5034    0.0000 C   0  0
   -2.5896    6.0034    0.0000 C   0  0
   -1.2931    5.2490    0.0000 C   0  0
   -1.2990   -0.7500    0.0000 C   0  0  1  0  0  0
   -2.4133   -1.7530    0.0000 C   0  0
   -1.8032   -3.1233    0.0000 O   0  0
   -0.3114   -2.9665    0.0000 C   0  0
    0.6924   -4.0811    0.0000 O   0  0
    0.0000   -1.5000    0.0000 C   0  0  2  0  0  0
    1.6104    5.2165    0.0000 O   0  0
    3.1022    5.3733    0.0000 C   0  0
    3.7123    4.0030    0.0000 O   0  0
    3.8967   -0.7484    0.0000 C   0  0
    5.1969   -1.4963    0.0000 C   0  0
    6.4939   -0.7411    0.0000 O   0  0
    6.4894    0.7589    0.0000 C   0  0
    5.1993   -2.9963    0.0000 C   0  0
    6.4987   -3.7473    0.0000 O   0  0
    6.4990   -5.2473    0.0000 C   0  0
  1  2  1  0
  2  3  1  0
  3  4  2  0
  4  5  1  0
  6  5  1  1
  6  7  1  0
  7  8  2  0
  8  9  1  0
  9 10  2  0
 10 11  1  0
 11 12  2  0
 12  7  1  0
 12 13  1  0
 13 14  1  6
 14 15  1  0
 15 16  2  0
 15 17  1  0
 17 18  1  0
 18 19  2  0
 19 20  1  0
 19 21  1  0
 21 22  2  0
 22 23  1  0
 22 24  1  0
 24 25  2  0
 25 18  1  0
 25 26  1  0
 13 27  1  0
 27 28  1  6
 28 29  1  0
 29 30  1  0
 30 31  2  0
 32 30  1  1
 32  6  1  0
 32 27  1  0
 10 33  1  0
 33 34  1  0
 34 35  1  0
 35  9  1  0
  5 36  2  0
 36 37  1  0
 37 38  1  0
 38 39  1  0
 37 40  2  0
 40  3  1  0
 40 41  1  0
 41 42  1  0
M  END
> <assay_chembl_id>
CHEMBL3620606

> <assay_description>
Cytotoxicity against human LNCAP cells after 48 hrs by MTT assay

> <document_journal>
Bioorg Med Chem Lett

> <molecule_chembl_id>
CHEMBL3617870

> <standard_value>
39760

> <IC50_uM>
39.76

> <Activity>
No

> <Canonical_Smiles>
COc1cc([C@@H]2c3cc4c(cc3[C@@H](NC(=S)Nc3c(C)cc(C)cc3C)[C@H]3COC(=O)[C@H]23)OCO4)cc(OC)c1OC

$$$$

  SciTegic03142313312D

 44 49  0  0  1  0            999 V2000
    5.1762  -10.5114    0.0000 C   0  0
    3.8787   -9.7587    0.0000 O   0  0
    3.8808   -8.2579    0.0000 C   0  0
    2.5844   -7.5034    0.0000 C   0  0
    2.5895   -6.0034    0.0000 C   0  0
    3.8912   -5.2578    0.0000 C   0  0
    3.8933   -3.7570    0.0000 N   0  0
    2.5951   -3.0039    0.0000 C   0  0
    1.2948   -3.7516    0.0000 S   0  0
    2.5973   -1.5031    0.0000 N   0  0
    1.2990   -0.7500    0.0000 C   0  0  2  0  0  0
    1.2990    0.7500    0.0000 C   0  0
    2.5981    1.5000    0.0000 C   0  0
    2.5981    3.0000    0.0000 C   0  0
    1.2990    3.7500    0.0000 C   0  0
    0.0000    3.0000    0.0000 C   0  0
    0.0000    1.5000    0.0000 C   0  0
   -1.2990    0.7500    0.0000 C   0  0  1  0  0  0
   -2.5987    1.5004    0.0000 C   0  0
   -3.8991    0.7525    0.0000 C   0  0
   -5.1969    1.5045    0.0000 C   0  0
   -6.4963    0.7535    0.0000 O   0  0
   -6.4966   -0.7465    0.0000 C   0  0
   -5.1945    3.0045    0.0000 C   0  0
   -6.4916    3.7597    0.0000 O   0  0
   -6.4870    5.2597    0.0000 C   0  0
   -3.8943    3.7525    0.0000 C   0  0
   -3.8888    5.2533    0.0000 O   0  0
   -2.5876    5.9994    0.0000 C   0  0
   -2.5965    3.0004    0.0000 C   0  0
   -1.2990   -0.7500    0.0000 C   0  0  1  0  0  0
   -2.4133   -1.7530    0.0000 C   0  0
   -3.8805   -1.4410    0.0000 O   0  0
   -1.8032   -3.1233    0.0000 O   0  0
   -0.3114   -2.9665    0.0000 C   0  0
    0.0000   -1.5000    0.0000 C   0  0  2  0  0  0
    1.6104    5.2165    0.0000 O   0  0
    3.1022    5.3733    0.0000 C   0  0
    3.7123    4.0030    0.0000 O   0  0
    5.1876   -6.0124    0.0000 C   0  0
    6.4915   -5.2692    0.0000 N   0  3
    7.7869   -6.0256    0.0000 O   0  0
    6.4994   -3.7692    0.0000 O   0  5
    5.1824   -7.5124    0.0000 C   0  0
  1  2  1  0
  2  3  1  0
  3  4  2  0
  4  5  1  0
  5  6  2  0
  6  7  1  0
  7  8  1  0
  8  9  2  0
  8 10  1  0
 11 10  1  1
 11 12  1  0
 12 13  2  0
 13 14  1  0
 14 15  2  0
 15 16  1  0
 16 17  2  0
 17 12  1  0
 17 18  1  0
 18 19  1  6
 19 20  2  0
 20 21  1  0
 21 22  1  0
 22 23  1  0
 21 24  2  0
 24 25  1  0
 25 26  1  0
 24 27  1  0
 27 28  1  0
 28 29  1  0
 27 30  2  0
 30 19  1  0
 18 31  1  0
 31 32  1  6
 32 33  2  0
 32 34  1  0
 34 35  1  0
 36 35  1  1
 36 31  1  0
 36 11  1  0
 15 37  1  0
 37 38  1  0
 38 39  1  0
 39 14  1  0
  6 40  1  0
 40 41  1  0
 41 42  2  0
 41 43  1  0
 40 44  2  0
 44  3  1  0
M  CHG  2  41   1  43  -1
M  END
> <assay_chembl_id>
CHEMBL3620606

> <assay_description>
Cytotoxicity against human LNCAP cells after 48 hrs by MTT assay

> <document_journal>
Bioorg Med Chem Lett

> <molecule_chembl_id>
CHEMBL3617871

> <standard_value>
25600

> <IC50_uM>
25.6

> <Activity>
No

> <Canonical_Smiles>
COc1ccc(NC(=S)N[C@@H]2c3cc4c(cc3[C@@H](c3cc(OC)c(OC)c(OC)c3)[C@H]3C(=O)OC[C@@H]32)OCO4)c([N+](=O)[O-])c1

$$$$

  SciTegic03142313312D

 41 46  0  0  1  0            999 V2000
    2.6018   -5.9994    0.0000 C   0  0
    3.9008   -5.2492    0.0000 O   0  0
    3.9014   -3.7484    0.0000 C   0  0
    2.6012   -3.0004    0.0000 C   0  0
    2.5987   -1.5004    0.0000 C   0  0
    1.2990   -0.7500    0.0000 C   0  0  2  0  0  0
    1.2990    0.7500    0.0000 C   0  0
    2.5981    1.5000    0.0000 C   0  0
    2.5981    3.0000    0.0000 C   0  0
    1.2990    3.7500    0.0000 C   0  0
    0.0000    3.0000    0.0000 C   0  0
    0.0000    1.5000    0.0000 C   0  0
   -1.2990    0.7500    0.0000 C   0  0  1  0  0  0
   -2.5973    1.5031    0.0000 N   0  0
   -2.5951    3.0039    0.0000 C   0  0
   -1.2948    3.7516    0.0000 S   0  0
   -3.8933    3.7570    0.0000 N   0  0
   -3.8912    5.2578    0.0000 C   0  0
   -5.1876    6.0124    0.0000 C   0  0
   -5.1824    7.5124    0.0000 C   0  0
   -3.8808    8.2579    0.0000 C   0  0
   -3.8756    9.7579    0.0000 Cl  0  0
   -2.5844    7.5034    0.0000 C   0  0
   -1.2828    8.2489    0.0000 Cl  0  0
   -2.5896    6.0034    0.0000 C   0  0
   -1.2990   -0.7500    0.0000 C   0  0  1  0  0  0
   -2.4133   -1.7530    0.0000 C   0  0
   -1.8032   -3.1233    0.0000 O   0  0
   -0.3114   -2.9665    0.0000 C   0  0
    0.6924   -4.0811    0.0000 O   0  0
    0.0000   -1.5000    0.0000 C   0  0  2  0  0  0
    1.6104    5.2165    0.0000 O   0  0
    3.1022    5.3733    0.0000 C   0  0
    3.7123    4.0030    0.0000 O   0  0
    3.8967   -0.7484    0.0000 C   0  0
    5.1969   -1.4963    0.0000 C   0  0
    6.4939   -0.7411    0.0000 O   0  0
    6.4894    0.7589    0.0000 C   0  0
    5.1993   -2.9963    0.0000 C   0  0
    6.4987   -3.7473    0.0000 O   0  0
    6.4990   -5.2473    0.0000 C   0  0
  1  2  1  0
  2  3  1  0
  3  4  2  0
  4  5  1  0
  6  5  1  1
  6  7  1  0
  7  8  2  0
  8  9  1  0
  9 10  2  0
 10 11  1  0
 11 12  2  0
 12  7  1  0
 12 13  1  0
 13 14  1  6
 14 15  1  0
 15 16  2  0
 15 17  1  0
 17 18  1  0
 18 19  2  0
 19 20  1  0
 20 21  2  0
 21 22  1  0
 21 23  1  0
 23 24  1  0
 23 25  2  0
 25 18  1  0
 13 26  1  0
 26 27  1  6
 27 28  1  0
 28 29  1  0
 29 30  2  0
 31 29  1  1
 31  6  1  0
 31 26  1  0
 10 32  1  0
 32 33  1  0
 33 34  1  0
 34  9  1  0
  5 35  2  0
 35 36  1  0
 36 37  1  0
 37 38  1  0
 36 39  2  0
 39  3  1  0
 39 40  1  0
 40 41  1  0
M  END
> <assay_chembl_id>
CHEMBL3620606

> <assay_description>
Cytotoxicity against human LNCAP cells after 48 hrs by MTT assay

> <document_journal>
Bioorg Med Chem Lett

> <molecule_chembl_id>
CHEMBL3617874

> <standard_value>
20020

> <IC50_uM>
20.02

> <Activity>
No

> <Canonical_Smiles>
COc1cc([C@@H]2c3cc4c(cc3[C@@H](NC(=S)Nc3ccc(Cl)c(Cl)c3)[C@H]3COC(=O)[C@H]23)OCO4)cc(OC)c1OC

$$$$

  SciTegic03142313312D

 43 48  0  0  1  0            999 V2000
    2.6018   -5.9994    0.0000 C   0  0
    3.9008   -5.2492    0.0000 O   0  0
    3.9014   -3.7484    0.0000 C   0  0
    2.6012   -3.0004    0.0000 C   0  0
    2.5987   -1.5004    0.0000 C   0  0
    1.2990   -0.7500    0.0000 C   0  0  2  0  0  0
    1.2990    0.7500    0.0000 C   0  0
    2.5981    1.5000    0.0000 C   0  0
    2.5981    3.0000    0.0000 C   0  0
    1.2990    3.7500    0.0000 C   0  0
    0.0000    3.0000    0.0000 C   0  0
    0.0000    1.5000    0.0000 C   0  0
   -1.2990    0.7500    0.0000 C   0  0  1  0  0  0
   -2.5973    1.5031    0.0000 N   0  0
   -2.5951    3.0039    0.0000 C   0  0
   -1.2948    3.7516    0.0000 S   0  0
   -3.8933    3.7570    0.0000 N   0  0
   -3.8912    5.2578    0.0000 C   0  0
   -5.1876    6.0124    0.0000 C   0  0
   -5.1824    7.5124    0.0000 C   0  0
   -3.8808    8.2579    0.0000 C   0  0
   -2.5844    7.5034    0.0000 C   0  0
   -1.2820    8.2493    0.0000 C   0  0
   -1.2759    9.7493    0.0000 F   0  0
    0.0142    7.4944    0.0000 F   0  0
    0.0199    8.9942    0.0000 F   0  0
   -2.5896    6.0034    0.0000 C   0  0
   -1.2990   -0.7500    0.0000 C   0  0  1  0  0  0
   -2.4133   -1.7530    0.0000 C   0  0
   -1.8032   -3.1233    0.0000 O   0  0
   -0.3114   -2.9665    0.0000 C   0  0
    0.6924   -4.0811    0.0000 O   0  0
    0.0000   -1.5000    0.0000 C   0  0  2  0  0  0
    1.6104    5.2165    0.0000 O   0  0
    3.1022    5.3733    0.0000 C   0  0
    3.7123    4.0030    0.0000 O   0  0
    3.8967   -0.7484    0.0000 C   0  0
    5.1969   -1.4963    0.0000 C   0  0
    6.4939   -0.7411    0.0000 O   0  0
    6.4894    0.7589    0.0000 C   0  0
    5.1993   -2.9963    0.0000 C   0  0
    6.4987   -3.7473    0.0000 O   0  0
    6.4990   -5.2473    0.0000 C   0  0
  1  2  1  0
  2  3  1  0
  3  4  2  0
  4  5  1  0
  6  5  1  1
  6  7  1  0
  7  8  2  0
  8  9  1  0
  9 10  2  0
 10 11  1  0
 11 12  2  0
 12  7  1  0
 12 13  1  0
 13 14  1  6
 14 15  1  0
 15 16  2  0
 15 17  1  0
 17 18  1  0
 18 19  2  0
 19 20  1  0
 20 21  2  0
 21 22  1  0
 22 23  1  0
 23 24  1  0
 23 25  1  0
 23 26  1  0
 22 27  2  0
 27 18  1  0
 13 28  1  0
 28 29  1  6
 29 30  1  0
 30 31  1  0
 31 32  2  0
 33 31  1  1
 33  6  1  0
 33 28  1  0
 10 34  1  0
 34 35  1  0
 35 36  1  0
 36  9  1  0
  5 37  2  0
 37 38  1  0
 38 39  1  0
 39 40  1  0
 38 41  2  0
 41  3  1  0
 41 42  1  0
 42 43  1  0
M  END
> <assay_chembl_id>
CHEMBL3620606

> <assay_description>
Cytotoxicity against human LNCAP cells after 48 hrs by MTT assay

> <document_journal>
Bioorg Med Chem Lett

> <molecule_chembl_id>
CHEMBL3617876

> <standard_value>
22230

> <IC50_uM>
22.23

> <Activity>
No

> <Canonical_Smiles>
COc1cc([C@@H]2c3cc4c(cc3[C@@H](NC(=S)Nc3cccc(C(F)(F)F)c3)[C@H]3COC(=O)[C@H]23)OCO4)cc(OC)c1OC

$$$$

  SciTegic03142313312D

 42 47  0  0  1  0            999 V2000
    2.6018   -5.9994    0.0000 C   0  0
    3.9008   -5.2492    0.0000 O   0  0
    3.9014   -3.7484    0.0000 C   0  0
    2.6012   -3.0004    0.0000 C   0  0
    2.5987   -1.5004    0.0000 C   0  0
    1.2990   -0.7500    0.0000 C   0  0  2  0  0  0
    1.2990    0.7500    0.0000 C   0  0
    2.5981    1.5000    0.0000 C   0  0
    2.5981    3.0000    0.0000 C   0  0
    1.2990    3.7500    0.0000 C   0  0
    0.0000    3.0000    0.0000 C   0  0
    0.0000    1.5000    0.0000 C   0  0
   -1.2990    0.7500    0.0000 C   0  0  1  0  0  0
   -2.5973    1.5031    0.0000 N   0  0
   -2.5951    3.0039    0.0000 C   0  0
   -1.2948    3.7516    0.0000 S   0  0
   -3.8933    3.7570    0.0000 N   0  0
   -3.8912    5.2578    0.0000 C   0  0
   -5.1876    6.0124    0.0000 C   0  0
   -5.1824    7.5124    0.0000 C   0  0
   -3.8808    8.2579    0.0000 C   0  0
   -3.8726    9.7587    0.0000 C   0  0
   -2.5699   10.5023    0.0000 C   0  0
   -5.1677   10.5154    0.0000 C   0  0
   -2.5844    7.5034    0.0000 C   0  0
   -2.5896    6.0034    0.0000 C   0  0
   -1.2990   -0.7500    0.0000 C   0  0  1  0  0  0
   -2.4133   -1.7530    0.0000 C   0  0
   -1.8032   -3.1233    0.0000 O   0  0
   -0.3114   -2.9665    0.0000 C   0  0
    0.6924   -4.0811    0.0000 O   0  0
    0.0000   -1.5000    0.0000 C   0  0  2  0  0  0
    1.6104    5.2165    0.0000 O   0  0
    3.1022    5.3733    0.0000 C   0  0
    3.7123    4.0030    0.0000 O   0  0
    3.8967   -0.7484    0.0000 C   0  0
    5.1969   -1.4963    0.0000 C   0  0
    6.4939   -0.7411    0.0000 O   0  0
    6.4894    0.7589    0.0000 C   0  0
    5.1993   -2.9963    0.0000 C   0  0
    6.4987   -3.7473    0.0000 O   0  0
    6.4990   -5.2473    0.0000 C   0  0
  1  2  1  0
  2  3  1  0
  3  4  2  0
  4  5  1  0
  6  5  1  1
  6  7  1  0
  7  8  2  0
  8  9  1  0
  9 10  2  0
 10 11  1  0
 11 12  2  0
 12  7  1  0
 12 13  1  0
 13 14  1  6
 14 15  1  0
 15 16  2  0
 15 17  1  0
 17 18  1  0
 18 19  2  0
 19 20  1  0
 20 21  2  0
 21 22  1  0
 22 23  1  0
 22 24  1  0
 21 25  1  0
 25 26  2  0
 26 18  1  0
 13 27  1  0
 27 28  1  6
 28 29  1  0
 29 30  1  0
 30 31  2  0
 32 30  1  1
 32  6  1  0
 32 27  1  0
 10 33  1  0
 33 34  1  0
 34 35  1  0
 35  9  1  0
  5 36  2  0
 36 37  1  0
 37 38  1  0
 38 39  1  0
 37 40  2  0
 40  3  1  0
 40 41  1  0
 41 42  1  0
M  END
> <assay_chembl_id>
CHEMBL3620606

> <assay_description>
Cytotoxicity against human LNCAP cells after 48 hrs by MTT assay

> <document_journal>
Bioorg Med Chem Lett

> <molecule_chembl_id>
CHEMBL3617883

> <standard_value>
84780

> <IC50_uM>
84.78

> <Activity>
No

> <Canonical_Smiles>
COc1cc([C@@H]2c3cc4c(cc3[C@@H](NC(=S)Nc3ccc(C(C)C)cc3)[C@H]3COC(=O)[C@H]23)OCO4)cc(OC)c1OC

$$$$

  SciTegic03142313312D

 42 48  0  0  1  0            999 V2000
    2.6018   -5.9994    0.0000 C   0  0
    3.9008   -5.2492    0.0000 O   0  0
    3.9014   -3.7484    0.0000 C   0  0
    2.6012   -3.0004    0.0000 C   0  0
    2.5987   -1.5004    0.0000 C   0  0
    1.2990   -0.7500    0.0000 C   0  0  2  0  0  0
    1.2990    0.7500    0.0000 C   0  0
    2.5981    1.5000    0.0000 C   0  0
    2.5981    3.0000    0.0000 C   0  0
    1.2990    3.7500    0.0000 C   0  0
    0.0000    3.0000    0.0000 C   0  0
    0.0000    1.5000    0.0000 C   0  0
   -1.2990    0.7500    0.0000 C   0  0  1  0  0  0
   -2.5973    1.5031    0.0000 O   0  0
   -2.5951    3.0039    0.0000 C   0  0  2  0  0  0
   -1.2935    3.7495    0.0000 O   0  0
   -1.2883    5.2495    0.0000 C   0  0  2  0  0  0
    0.0133    5.9950    0.0000 C   0  0
    0.0185    7.4950    0.0000 O   0  0
   -1.2780    8.2495    0.0000 C   0  0  1  0  0  0
   -1.2728    9.7495    0.0000 C   0  0
   -2.5796    7.5040    0.0000 O   0  0
   -2.5848    6.0040    0.0000 C   0  0  1  0  0  0
   -3.8864    5.2585    0.0000 C   0  0  2  0  0  0
   -5.1828    6.0129    0.0000 O   0  0
   -3.8915    3.7585    0.0000 C   0  0  1  0  0  0
   -5.1932    3.0130    0.0000 O   0  0
   -1.2990   -0.7500    0.0000 C   0  0  1  0  0  0
   -2.4133   -1.7530    0.0000 C   0  0
   -1.8032   -3.1233    0.0000 O   0  0
   -0.3114   -2.9665    0.0000 C   0  0
    0.6924   -4.0811    0.0000 O   0  0
    0.0000   -1.5000    0.0000 C   0  0  2  0  0  0
    1.6104    5.2165    0.0000 O   0  0
    3.1022    5.3733    0.0000 C   0  0
    3.7123    4.0030    0.0000 O   0  0
    3.8967   -0.7484    0.0000 C   0  0
    5.1969   -1.4963    0.0000 C   0  0
    6.4939   -0.7411    0.0000 O   0  0
    6.4894    0.7589    0.0000 C   0  0
    5.1993   -2.9963    0.0000 C   0  0
    6.4995   -3.7442    0.0000 O   0  0
  1  2  1  0
  2  3  1  0
  3  4  2  0
  4  5  1  0
  6  5  1  1
  6  7  1  0
  7  8  2  0
  8  9  1  0
  9 10  2  0
 10 11  1  0
 11 12  2  0
 12  7  1  0
 12 13  1  0
 13 14  1  6
 15 14  1  1
 15 16  1  0
 17 16  1  1
 17 18  1  0
 18 19  1  0
 19 20  1  0
 20 21  1  6
 20 22  1  0
 23 22  1  6
 23 17  1  0
 23 24  1  0
 24 25  1  1
 24 26  1  0
 26 15  1  0
 26 27  1  6
 13 28  1  0
 28 29  1  6
 29 30  1  0
 30 31  1  0
 31 32  2  0
 33 31  1  1
 33  6  1  0
 33 28  1  0
 10 34  1  0
 34 35  1  0
 35 36  1  0
 36  9  1  0
  5 37  2  0
 37 38  1  0
 38 39  1  0
 39 40  1  0
 38 41  2  0
 41  3  1  0
 41 42  1  0
M  END
> <assay_chembl_id>
CHEMBL3620606

> <assay_description>
Cytotoxicity against human LNCAP cells after 48 hrs by MTT assay

> <document_journal>
Bioorg Med Chem Lett

> <molecule_chembl_id>
CHEMBL44657

> <standard_value>
50330

> <IC50_uM>
50.33

> <Activity>
No

> <Canonical_Smiles>
COc1cc([C@@H]2c3cc4c(cc3[C@@H](O[C@@H]3O[C@@H]5CO[C@@H](C)O[C@H]5[C@H](O)[C@H]3O)[C@H]3COC(=O)[C@H]23)OCO4)cc(OC)c1O

$$$$

  SciTegic03142313312D

 31 34  0  0  0  0            999 V2000
    2.5951   -3.0031    0.0000 C   0  0
    2.5973   -1.5031    0.0000 O   0  0
    1.2990   -0.7500    0.0000 C   0  0
    1.2990    0.7500    0.0000 C   0  0
    0.0000    1.5000    0.0000 C   0  0
   -1.2990    0.7500    0.0000 C   0  0
   -2.7248    1.2135    0.0000 N   0  0
   -3.6065    0.0000    0.0000 C   0  0
   -2.7248   -1.2135    0.0000 C   0  0
   -3.1884   -2.6409    0.0000 C   0  0
   -4.5650   -3.1911    0.0000 N   0  0
   -4.4475   -4.6865    0.0000 C   0  0
   -5.5849   -5.6617    0.0000 C   0  0
   -6.9996   -5.1633    0.0000 O   0  0
   -5.3094   -7.1371    0.0000 N   0  0
   -6.4487   -8.1140    0.0000 C   0  0
   -6.1756   -9.5889    0.0000 C   0  0
   -7.3162  -10.5630    0.0000 C   0  0
   -7.0398  -12.0382    0.0000 O   0  0
   -5.6252  -12.5370    0.0000 C   0  0
   -8.7302  -10.0622    0.0000 C   0  0
   -9.8735  -11.0345    0.0000 O   0  0
  -11.2867  -10.5317    0.0000 C   0  0
   -9.0034   -8.5873    0.0000 C   0  0
  -10.4171   -8.0833    0.0000 O   0  0
  -10.6882   -6.6080    0.0000 C   0  0
   -7.8627   -7.6132    0.0000 C   0  0
   -2.9890   -5.0368    0.0000 C   0  0
   -2.2051   -3.7579    0.0000 S   0  0
   -1.2990   -0.7500    0.0000 C   0  0
    0.0000   -1.5000    0.0000 C   0  0
  1  2  1  0
  2  3  1  0
  3  4  2  0
  4  5  1  0
  5  6  2  0
  6  7  1  0
  7  8  1  0
  8  9  2  0
  9 10  1  0
 10 11  2  0
 11 12  1  0
 12 13  1  0
 13 14  2  0
 13 15  1  0
 15 16  1  0
 16 17  2  0
 17 18  1  0
 18 19  1  0
 19 20  1  0
 18 21  2  0
 21 22  1  0
 22 23  1  0
 21 24  1  0
 24 25  1  0
 25 26  1  0
 24 27  2  0
 27 16  1  0
 12 28  2  0
 28 29  1  0
 29 10  1  0
  9 30  1  0
 30  6  1  0
 30 31  2  0
 31  3  1  0
M  END
> <assay_chembl_id>
CHEMBL3620518

> <assay_description>
Cytotoxicity against human LNCAP cells after 48 hrs by MTT assay in presence of 10% FBS

> <document_journal>
Bioorg Med Chem Lett

> <molecule_chembl_id>
CHEMBL3618273

> <standard_value>
84800

> <IC50_uM>
84.8

> <Activity>
No

> <Canonical_Smiles>
COc1ccc2[nH]cc(-c3nc(C(=O)Nc4cc(OC)c(OC)c(OC)c4)cs3)c2c1

$$$$

  SciTegic03142313312D

 26 29  0  0  0  0            999 V2000
  -11.7876   -6.2783    0.0000 C   0  0
  -11.2157   -4.8916    0.0000 O   0  0
   -9.7281   -4.6926    0.0000 C   0  0
   -9.1542   -3.3067    0.0000 C   0  0
   -7.6670   -3.1108    0.0000 C   0  0
   -6.7537   -4.3007    0.0000 C   0  0
   -5.2654   -4.1077    0.0000 N   0  0
   -4.3533   -5.2996    0.0000 C   0  0
   -4.9296   -6.6845    0.0000 O   0  0
   -2.8675   -5.1069    0.0000 C   0  0
   -1.8348   -6.1949    0.0000 C   0  0
   -0.4810   -5.5489    0.0000 S   0  0
   -0.6928   -4.0817    0.0000 C   0  0
    0.3114   -2.9665    0.0000 C   0  0
    1.8032   -3.1233    0.0000 C   0  0
    2.4133   -1.7530    0.0000 N   0  0
    1.2990   -0.7500    0.0000 C   0  0
    1.2990    0.7500    0.0000 C   0  0
    0.0000    1.5000    0.0000 C   0  0
   -1.2990    0.7500    0.0000 C   0  0
   -2.5981    1.5000    0.0000 F   0  0
   -1.2990   -0.7500    0.0000 C   0  0
    0.0000   -1.5000    0.0000 C   0  0
   -2.1519   -3.7886    0.0000 N   0  0
   -7.3277   -5.6866    0.0000 C   0  0
   -8.8149   -5.8825    0.0000 C   0  0
  1  2  1  0
  2  3  1  0
  3  4  2  0
  4  5  1  0
  5  6  2  0
  6  7  1  0
  7  8  1  0
  8  9  2  0
  8 10  1  0
 10 11  2  0
 11 12  1  0
 12 13  1  0
 13 14  1  0
 14 15  2  0
 15 16  1  0
 16 17  1  0
 17 18  2  0
 18 19  1  0
 19 20  2  0
 20 21  1  0
 20 22  1  0
 22 23  2  0
 23 14  1  0
 23 17  1  0
 13 24  2  0
 24 10  1  0
  6 25  1  0
 25 26  2  0
 26  3  1  0
M  END
> <assay_chembl_id>
CHEMBL3620518

> <assay_description>
Cytotoxicity against human LNCAP cells after 48 hrs by MTT assay in presence of 10% FBS

> <document_journal>
Bioorg Med Chem Lett

> <molecule_chembl_id>
CHEMBL3618276

> <standard_value>
75420

> <IC50_uM>
75.42

> <Activity>
No

> <Canonical_Smiles>
COc1ccc(NC(=O)c2csc(-c3c[nH]c4ccc(F)cc34)n2)cc1

$$$$

  SciTegic03142313312D

 30 33  0  0  0  0            999 V2000
   -9.4896   -0.7291    0.0000 C   0  0
  -10.0655   -2.1142    0.0000 O   0  0
   -9.1542   -3.3067    0.0000 C   0  0
   -7.6670   -3.1108    0.0000 C   0  0
   -6.7537   -4.3007    0.0000 C   0  0
   -5.2654   -4.1077    0.0000 N   0  0
   -4.3533   -5.2996    0.0000 C   0  0
   -4.9296   -6.6845    0.0000 O   0  0
   -2.8675   -5.1069    0.0000 C   0  0
   -1.8348   -6.1949    0.0000 C   0  0
   -0.4810   -5.5489    0.0000 S   0  0
   -0.6928   -4.0817    0.0000 C   0  0
    0.3114   -2.9665    0.0000 C   0  0
    1.8032   -3.1233    0.0000 C   0  0
    2.4133   -1.7530    0.0000 N   0  0
    1.2990   -0.7500    0.0000 C   0  0
    1.2990    0.7500    0.0000 C   0  0
    0.0000    1.5000    0.0000 C   0  0
   -1.2990    0.7500    0.0000 C   0  0
   -2.5981    1.5000    0.0000 F   0  0
   -1.2990   -0.7500    0.0000 C   0  0
    0.0000   -1.5000    0.0000 C   0  0
   -2.1519   -3.7886    0.0000 N   0  0
   -7.3277   -5.6866    0.0000 C   0  0
   -8.8149   -5.8825    0.0000 C   0  0
   -9.3863   -7.2703    0.0000 O   0  0
   -8.4713   -8.4590    0.0000 C   0  0
   -9.7281   -4.6926    0.0000 C   0  0
  -11.2165   -4.8855    0.0000 O   0  0
  -12.1280   -3.6943    0.0000 C   0  0
  1  2  1  0
  2  3  1  0
  3  4  2  0
  4  5  1  0
  5  6  1  0
  6  7  1  0
  7  8  2  0
  7  9  1  0
  9 10  2  0
 10 11  1  0
 11 12  1  0
 12 13  1  0
 13 14  2  0
 14 15  1  0
 15 16  1  0
 16 17  2  0
 17 18  1  0
 18 19  2  0
 19 20  1  0
 19 21  1  0
 21 22  2  0
 22 13  1  0
 22 16  1  0
 12 23  2  0
 23  9  1  0
  5 24  2  0
 24 25  1  0
 25 26  1  0
 26 27  1  0
 25 28  2  0
 28  3  1  0
 28 29  1  0
 29 30  1  0
M  END
> <assay_chembl_id>
CHEMBL3620518

> <assay_description>
Cytotoxicity against human LNCAP cells after 48 hrs by MTT assay in presence of 10% FBS

> <document_journal>
Bioorg Med Chem Lett

> <molecule_chembl_id>
CHEMBL3618277

> <standard_value>
88510

> <IC50_uM>
88.51

> <Activity>
No

> <Canonical_Smiles>
COc1cc(NC(=O)c2csc(-c3c[nH]c4ccc(F)cc34)n2)cc(OC)c1OC

$$$$

  SciTegic03142313312D

 31 35  0  0  0  0            999 V2000
   -4.9296   -6.6845    0.0000 O   0  0
   -4.3533   -5.2996    0.0000 C   0  0
   -5.2654   -4.1077    0.0000 N   0  0
   -6.7537   -4.3007    0.0000 C   0  0
   -7.6671   -3.1108    0.0000 C   0  0
   -9.1542   -3.3067    0.0000 C   0  0
   -9.7281   -4.6926    0.0000 C   0  0
   -8.8149   -5.8825    0.0000 C   0  0
   -7.3277   -5.6866    0.0000 C   0  0
   -2.8675   -5.1069    0.0000 C   0  0
   -1.8348   -6.1949    0.0000 C   0  0
   -0.4810   -5.5489    0.0000 S   0  0
   -0.6928   -4.0817    0.0000 C   0  0
    0.3114   -2.9665    0.0000 C   0  0
    1.8032   -3.1233    0.0000 C   0  0
    2.4133   -1.7530    0.0000 N   0  0
    3.8794   -1.4442    0.0000 C   0  0
    4.8823   -2.5608    0.0000 C   0  0
    6.3506   -2.2538    0.0000 C   0  0
    7.3506   -3.3718    0.0000 C   0  0
    6.8824   -4.7969    0.0000 C   0  0
    7.8825   -5.9149    0.0000 Cl  0  0
    5.4142   -5.1039    0.0000 C   0  0
    4.4142   -3.9859    0.0000 C   0  0
    1.2990   -0.7500    0.0000 C   0  0
    1.2990    0.7500    0.0000 C   0  0
    0.0000    1.5000    0.0000 C   0  0
   -1.2990    0.7500    0.0000 C   0  0
   -1.2990   -0.7500    0.0000 C   0  0
    0.0000   -1.5000    0.0000 C   0  0
   -2.1519   -3.7886    0.0000 N   0  0
  1  2  2  0
  2  3  1  0
  3  4  1  0
  4  5  2  0
  5  6  1  0
  6  7  2  0
  7  8  1  0
  8  9  2  0
  9  4  1  0
  2 10  1  0
 10 11  2  0
 11 12  1  0
 12 13  1  0
 13 14  1  0
 14 15  2  0
 15 16  1  0
 16 17  1  0
 17 18  1  0
 18 19  2  0
 19 20  1  0
 20 21  2  0
 21 22  1  0
 21 23  1  0
 23 24  2  0
 24 18  1  0
 16 25  1  0
 25 26  2  0
 26 27  1  0
 27 28  2  0
 28 29  1  0
 29 30  2  0
 30 14  1  0
 30 25  1  0
 13 31  2  0
 31 10  1  0
M  END
> <assay_chembl_id>
CHEMBL3620518

> <assay_description>
Cytotoxicity against human LNCAP cells after 48 hrs by MTT assay in presence of 10% FBS

> <document_journal>
Bioorg Med Chem Lett

> <molecule_chembl_id>
CHEMBL3618278

> <standard_value>
68940

> <IC50_uM>
68.94

> <Activity>
No

> <Canonical_Smiles>
O=C(Nc1ccccc1)c1csc(-c2cn(Cc3ccc(Cl)cc3)c3ccccc23)n1

$$$$

  SciTegic03142313312D

 37 41  0  0  0  0            999 V2000
   -9.4896   -0.7291    0.0000 C   0  0
  -10.0655   -2.1142    0.0000 O   0  0
   -9.1542   -3.3067    0.0000 C   0  0
   -7.6670   -3.1108    0.0000 C   0  0
   -6.7537   -4.3007    0.0000 C   0  0
   -5.2654   -4.1077    0.0000 N   0  0
   -4.3533   -5.2996    0.0000 C   0  0
   -4.9296   -6.6845    0.0000 O   0  0
   -2.8675   -5.1069    0.0000 C   0  0
   -1.8348   -6.1949    0.0000 C   0  0
   -0.4810   -5.5489    0.0000 S   0  0
   -0.6928   -4.0817    0.0000 C   0  0
    0.3114   -2.9665    0.0000 C   0  0
    1.8032   -3.1233    0.0000 C   0  0
    2.4133   -1.7530    0.0000 N   0  0
    3.8794   -1.4442    0.0000 C   0  0
    4.8823   -2.5608    0.0000 C   0  0
    6.3506   -2.2538    0.0000 C   0  0
    7.3506   -3.3718    0.0000 C   0  0
    6.8824   -4.7969    0.0000 C   0  0
    7.8825   -5.9149    0.0000 Cl  0  0
    5.4142   -5.1039    0.0000 C   0  0
    4.4142   -3.9859    0.0000 C   0  0
    1.2990   -0.7500    0.0000 C   0  0
    1.2990    0.7500    0.0000 C   0  0
    0.0000    1.5000    0.0000 C   0  0
   -1.2990    0.7500    0.0000 C   0  0
   -1.2990   -0.7500    0.0000 C   0  0
    0.0000   -1.5000    0.0000 C   0  0
   -2.1519   -3.7886    0.0000 N   0  0
   -7.3277   -5.6866    0.0000 C   0  0
   -8.8149   -5.8825    0.0000 C   0  0
   -9.3863   -7.2703    0.0000 O   0  0
   -8.4713   -8.4590    0.0000 C   0  0
   -9.7281   -4.6926    0.0000 C   0  0
  -11.2165   -4.8855    0.0000 O   0  0
  -12.1280   -3.6943    0.0000 C   0  0
  1  2  1  0
  2  3  1  0
  3  4  2  0
  4  5  1  0
  5  6  1  0
  6  7  1  0
  7  8  2  0
  7  9  1  0
  9 10  2  0
 10 11  1  0
 11 12  1  0
 12 13  1  0
 13 14  2  0
 14 15  1  0
 15 16  1  0
 16 17  1  0
 17 18  2  0
 18 19  1  0
 19 20  2  0
 20 21  1  0
 20 22  1  0
 22 23  2  0
 23 17  1  0
 15 24  1  0
 24 25  2  0
 25 26  1  0
 26 27  2  0
 27 28  1  0
 28 29  2  0
 29 13  1  0
 29 24  1  0
 12 30  2  0
 30  9  1  0
  5 31  2  0
 31 32  1  0
 32 33  1  0
 33 34  1  0
 32 35  2  0
 35  3  1  0
 35 36  1  0
 36 37  1  0
M  END
> <assay_chembl_id>
CHEMBL3618652

> <assay_description>
Cytotoxicity against human LNCAP cells after 48 hrs by MTT assay in absence of 10% FBS

> <document_journal>
Bioorg Med Chem Lett

> <molecule_chembl_id>
CHEMBL3618280

> <standard_value>
97700

> <IC50_uM>
97.7

> <Activity>
No

> <Canonical_Smiles>
COc1cc(NC(=O)c2csc(-c3cn(Cc4ccc(Cl)cc4)c4ccccc34)n2)cc(OC)c1OC

$$$$

  SciTegic03142313312D

 32 35  0  0  1  0            999 V2000
   -8.9491   -0.1858    0.0000 C   0  0
   -7.7203    0.6745    0.0000 C   0  0
   -6.3597    0.0410    0.0000 S   0  0
   -6.2286   -1.4533    0.0000 O   0  0
   -7.5881   -0.8199    0.0000 O   0  0
   -5.1303    0.9017    0.0000 N   0  0
   -3.7763    0.2710    0.0000 C   0  0  2  0  0  0
   -3.6137   -1.1564    0.0000 C   0  0
   -2.4392   -0.3433    0.0000 C   0  0  2  0  0  0
   -2.2842   -1.8353    0.0000 C   0  0
   -3.7221    2.0056    0.0000 O   0  0
   -2.6199    1.1202    0.0000 C   0  0  1  0  0  0
   -1.6578    2.2710    0.0000 C   0  0
   -1.3009    0.4878    0.0000 C   0  0  2  0  0  0
    0.0000    1.0841    0.0000 C   0  0
    0.3156    2.5505    0.0000 O   0  0
    0.9576    0.0000    0.0000 N   0  0
    2.4031    0.0000    0.0000 C   0  0
    3.3215   -1.1748    0.0000 C   0  0
    4.8067   -0.9645    0.0000 C   0  0
    5.3671    0.4269    0.0000 C   0  0
    6.8531    0.6374    0.0000 C   0  0
    8.3383    0.8477    0.0000 N   0  0
    4.4423    1.6079    0.0000 C   0  0
    5.0031    3.0001    0.0000 C   0  0
    6.4881    3.2114    0.0000 F   0  0
    4.0779    4.1808    0.0000 F   0  0
    5.5628    4.3917    0.0000 F   0  0
    2.9572    1.3976    0.0000 C   0  0
    0.2349   -1.2286    0.0000 C   0  0
    0.8371   -2.6025    0.0000 O   0  0
   -1.1564   -0.9215    0.0000 C   0  0  2  0  0  0
  1  2  1  0
  2  3  1  0
  3  4  2  0
  3  5  2  0
  3  6  1  0
  7  6  1  1
  7  8  1  0
  8  9  1  0
  9 10  1  1
  9 11  1  0
 11 12  1  0
 12  7  1  0
 12 13  1  1
 12 14  1  0
 14 15  1  6
 15 16  2  0
 15 17  1  0
 17 18  1  0
 18 19  2  0
 19 20  1  0
 20 21  2  0
 21 22  1  0
 22 23  3  0
 21 24  1  0
 24 25  1  0
 25 26  1  0
 25 27  1  0
 25 28  1  0
 24 29  2  0
 29 18  1  0
 17 30  1  0
 30 31  2  0
 32 30  1  6
 32 14  1  0
 32  9  1  0
M  END
> <assay_chembl_id>
CHEMBL3624806

> <assay_description>
Cytotoxicity against human LNCAP cells

> <document_journal>
ACS Med Chem Lett

> <molecule_chembl_id>
CHEMBL3623127

> <standard_value>
153

> <IC50_uM>
0.153

> <Activity>
Yes

> <Canonical_Smiles>
CCS(=O)(=O)N[C@@H]1C[C@]2(C)O[C@]1(C)[C@@H]1C(=O)N(c3ccc(C#N)c(C(F)(F)F)c3)C(=O)[C@@H]12

$$$$

  SciTegic03142313312D

 22 24  0  0  0  0            999 V2000
    2.5981   -1.5000    0.0000 O   0  0
    1.2990   -0.7500    0.0000 C   0  0
    1.2990    0.7500    0.0000 C   0  0
    2.5981    1.5000    0.0000 O   0  0
    0.0000    1.5000    0.0000 C   0  0
    0.0000    3.0008    0.0000 C   0  0
    1.2978    3.7529    0.0000 C   0  0
    1.2954    5.2529    0.0000 C   0  0
   -0.0048    6.0009    0.0000 C   0  0
   -0.0072    7.5009    0.0000 O   0  0
   -1.3026    5.2488    0.0000 C   0  0
   -2.6029    5.9967    0.0000 O   0  0
   -1.3002    3.7488    0.0000 C   0  0
   -1.2990    0.7500    0.0000 O   0  0
   -1.2990   -0.7500    0.0000 C   0  0
   -2.5981   -1.5000    0.0000 C   0  0
   -2.5981   -3.0000    0.0000 C   0  0
   -3.8971   -3.7500    0.0000 O   0  0
   -1.2990   -3.7500    0.0000 C   0  0
    0.0000   -3.0000    0.0000 C   0  0
    1.2991   -3.7500    0.0000 O   0  0
    0.0000   -1.5000    0.0000 C   0  0
  1  2  2  0
  2  3  1  0
  3  4  1  0
  3  5  2  0
  5  6  1  0
  6  7  2  0
  7  8  1  0
  8  9  2  0
  9 10  1  0
  9 11  1  0
 11 12  1  0
 11 13  2  0
 13  6  1  0
  5 14  1  0
 14 15  1  0
 15 16  2  0
 16 17  1  0
 17 18  1  0
 17 19  2  0
 19 20  1  0
 20 21  1  0
 20 22  2  0
 22  2  1  0
 22 15  1  0
M  END
> <assay_chembl_id>
CHEMBL3625665

> <assay_description>
Cytotoxicity against human androgen-dependent LNCAP cells assessed as inhibition of cell viability after 3 days by WST-1 cell proliferation assay

> <document_journal>
Bioorg Med Chem Lett

> <molecule_chembl_id>
CHEMBL50

> <standard_value>
45500

> <IC50_uM>
45.5

> <Activity>
No

> <Canonical_Smiles>
O=c1c(O)c(-c2ccc(O)c(O)c2)oc2cc(O)cc(O)c12

$$$$

  SciTegic03142313312D

 26 29  0  0  1  0            999 V2000
    3.8983   -0.7459    0.0000 C   0  0
    2.6003   -1.4977    0.0000 O   0  0
    1.2990   -0.7500    0.0000 C   0  0
    1.2990    0.7500    0.0000 C   0  0
    0.0000    1.5000    0.0000 C   0  0
   -1.2990    0.7500    0.0000 C   0  0
   -1.2990   -0.7500    0.0000 C   0  0
    0.0000   -1.5000    0.0000 C   0  0
   -0.0031   -3.0008    0.0000 O   0  0
   -1.3039   -3.7494    0.0000 S   0  0
   -2.6016   -2.9971    0.0000 N   0  0
   -1.3070   -5.2494    0.0000 O   0  0
   -2.6044   -4.4969    0.0000 O   0  0
   -2.5981    1.5000    0.0000 C   0  0
   -2.5981    3.0000    0.0000 C   0  0
   -1.2991    3.7500    0.0000 C   0  0  2  0  0  0
    0.0000    3.0000    0.0000 C   0  0  2  0  0  0
    1.2990    3.7500    0.0000 C   0  0
    1.2990    5.2500    0.0000 C   0  0
    0.0000    6.0000    0.0000 C   0  0  2  0  0  0
    1.2211    6.8711    0.0000 C   0  0
   -0.2851    7.4666    0.0000 C   0  0
    0.7318    8.5693    0.0000 O   0  0
   -1.7759    7.6329    0.0000 C   0  0
   -2.3947    6.2665    0.0000 C   0  0
   -1.2991    5.2500    0.0000 C   0  0  1  0  0  0
  1  2  1  0
  2  3  1  0
  3  4  2  0
  4  5  1  0
  5  6  2  0
  6  7  1  0
  7  8  2  0
  8  3  1  0
  8  9  1  0
  9 10  1  0
 10 11  1  0
 10 12  2  0
 10 13  2  0
  6 14  1  0
 14 15  1  0
 16 15  1  1
 16 17  1  0
 17  5  1  0
 17 18  1  6
 18 19  1  0
 19 20  1  0
 20 21  1  6
 20 22  1  0
 22 23  2  0
 22 24  1  0
 24 25  1  0
 26 25  1  6
 26 16  1  0
 26 20  1  0
M  END
> <assay_chembl_id>
CHEMBL3627258

> <assay_description>
Growth inhibition of human LNCAP cells (androgen receptor positive)

> <document_journal>
J Med Chem

> <molecule_chembl_id>
CHEMBL372231

> <standard_value>
100

> <IC50_uM>
0.1

> <Activity>
Yes

> <Canonical_Smiles>
COc1cc2c(cc1OS(N)(=O)=O)CC[C@@H]1[C@@H]2CC[C@]2(C)C(=O)CC[C@@H]12

$$$$

  SciTegic03142313312D

 26 29  0  0  1  0            999 V2000
    3.8983   -0.7459    0.0000 C   0  0
    2.6003   -1.4977    0.0000 C   0  0
    1.2990   -0.7500    0.0000 C   0  0
    1.2990    0.7500    0.0000 C   0  0
    0.0000    1.5000    0.0000 C   0  0
   -1.2990    0.7500    0.0000 C   0  0
   -1.2990   -0.7500    0.0000 C   0  0
    0.0000   -1.5000    0.0000 C   0  0
   -0.0031   -3.0008    0.0000 O   0  0
   -1.3039   -3.7494    0.0000 S   0  0
   -2.6016   -2.9971    0.0000 N   0  0
   -1.3070   -5.2494    0.0000 O   0  0
   -2.6044   -4.4969    0.0000 O   0  0
   -2.5981    1.5000    0.0000 C   0  0
   -2.5981    3.0000    0.0000 C   0  0
   -1.2991    3.7500    0.0000 C   0  0  2  0  0  0
    0.0000    3.0000    0.0000 C   0  0  2  0  0  0
    1.2990    3.7500    0.0000 C   0  0
    1.2990    5.2500    0.0000 C   0  0
    0.0000    6.0000    0.0000 C   0  0  2  0  0  0
    1.2211    6.8711    0.0000 C   0  0
   -0.2851    7.4666    0.0000 C   0  0
    0.7318    8.5693    0.0000 O   0  0
   -1.7759    7.6329    0.0000 C   0  0
   -2.3947    6.2665    0.0000 C   0  0
   -1.2991    5.2500    0.0000 C   0  0  1  0  0  0
  1  2  1  0
  2  3  1  0
  3  4  2  0
  4  5  1  0
  5  6  2  0
  6  7  1  0
  7  8  2  0
  8  3  1  0
  8  9  1  0
  9 10  1  0
 10 11  1  0
 10 12  2  0
 10 13  2  0
  6 14  1  0
 14 15  1  0
 16 15  1  1
 16 17  1  0
 17  5  1  0
 17 18  1  6
 18 19  1  0
 19 20  1  0
 20 21  1  6
 20 22  1  0
 22 23  2  0
 22 24  1  0
 24 25  1  0
 26 25  1  6
 26 16  1  0
 26 20  1  0
M  END
> <assay_chembl_id>
CHEMBL3627258

> <assay_description>
Growth inhibition of human LNCAP cells (androgen receptor positive)

> <document_journal>
J Med Chem

> <molecule_chembl_id>
CHEMBL190451

> <standard_value>
100

> <IC50_uM>
0.1

> <Activity>
Yes

> <Canonical_Smiles>
CCc1cc2c(cc1OS(N)(=O)=O)CC[C@@H]1[C@@H]2CC[C@]2(C)C(=O)CC[C@@H]12

$$$$

  SciTegic03142313312D

 25 26  0  0  1  0            999 V2000
    3.5913    1.7909    0.0000 C   0  0
    4.7151    0.7975    0.0000 C   0  0
    6.1372    1.2745    0.0000 C   0  0
    5.0133    2.2675    0.0000 C   0  0
    4.4175   -0.6735    0.0000 O   0  0
    5.5419   -1.6675    0.0000 C   0  0
    6.9641   -1.1905    0.0000 O   0  0
    5.2447   -3.1359    0.0000 N   0  0
    3.8933   -3.7570    0.0000 C   0  0  1  0  0  0
    2.5951   -3.0039    0.0000 C   0  0
    1.2934   -3.7508    0.0000 C   0  0
    1.2884   -5.2516    0.0000 C   0  0
   -0.0116   -6.0000    0.0000 C   0  0
   -0.0135   -7.5000    0.0000 C   0  0
    1.2846   -8.2516    0.0000 C   0  0
    1.2858   -9.7525    0.0000 N   0  3
    2.5849  -10.5023    0.0000 O   0  0
   -0.0129  -10.5031    0.0000 O   0  5
    2.5846   -7.5033    0.0000 C   0  0
    2.5865   -6.0033    0.0000 C   0  0
    4.0312   -5.2378    0.0000 C   0  0
    5.4984   -5.5497    0.0000 O   0  0
    6.2484   -4.2507    0.0000 C   0  0
    6.8379   -2.8714    0.0000 C   0  0
    7.1120   -5.4772    0.0000 C   0  0
  1  2  1  0
  2  3  1  0
  2  4  1  0
  2  5  1  0
  5  6  1  0
  6  7  2  0
  6  8  1  0
  8  9  1  0
  9 10  1  6
 10 11  2  0
 11 12  1  0
 12 13  2  0
 13 14  1  0
 14 15  2  0
 15 16  1  0
 16 17  2  0
 16 18  1  0
 15 19  1  0
 19 20  2  0
 20 12  1  0
  9 21  1  0
 21 22  1  0
 22 23  1  0
 23  8  1  0
 23 24  1  0
 23 25  1  0
M  CHG  2  16   1  18  -1
M  END
> <assay_chembl_id>
CHEMBL3632054

> <assay_description>
Antiproliferative activity against human LNCAP cells incubated for 48 hrs by MTT assay

> <document_journal>
Medchemcomm

> <molecule_chembl_id>
CHEMBL3627822

> <standard_value>
27000

> <IC50_uM>
27

> <Activity>
No

> <Canonical_Smiles>
CC(C)(C)OC(=O)N1[C@@H](/C=C\c2ccc([N+](=O)[O-])cc2)COC1(C)C

$$$$

  SciTegic03142313312D

 26 27  0  0  1  0            999 V2000
    3.8926   -3.7566    0.0000 C   0  0
    2.5951   -3.0039    0.0000 O   0  0
    2.5973   -1.5031    0.0000 C   0  0
    3.8976   -0.7553    0.0000 O   0  0
    1.2990   -0.7500    0.0000 C   0  0
    1.2990    0.7500    0.0000 C   0  0
    0.0000    1.5000    0.0000 C   0  0
   -1.2990    0.7500    0.0000 C   0  0
   -2.6003    1.4977    0.0000 C   0  0
   -3.8990    0.7455    0.0000 C   0  0
   -5.2003    1.4932    0.0000 C   0  0  1  0  0  0
   -5.3382    2.9741    0.0000 C   0  0
   -6.8054    3.2859    0.0000 O   0  0
   -7.5554    1.9869    0.0000 C   0  0
   -8.1449    0.6076    0.0000 C   0  0
   -8.4190    3.2133    0.0000 C   0  0
   -6.5517    0.8722    0.0000 N   0  0
   -6.8489   -0.5963    0.0000 C   0  0
   -8.2710   -1.0733    0.0000 O   0  0
   -5.7244   -1.5902    0.0000 O   0  0
   -6.0220   -3.0612    0.0000 C   0  0
   -4.8981   -4.0547    0.0000 C   0  0
   -6.3202   -4.5313    0.0000 C   0  0
   -7.4441   -3.5383    0.0000 C   0  0
   -1.2990   -0.7500    0.0000 C   0  0
    0.0000   -1.5000    0.0000 C   0  0
  1  2  1  0
  2  3  1  0
  3  4  2  0
  3  5  1  0
  5  6  2  0
  6  7  1  0
  7  8  2  0
  8  9  1  0
  9 10  1  0
 11 10  1  6
 11 12  1  0
 12 13  1  0
 13 14  1  0
 14 15  1  0
 14 16  1  0
 14 17  1  0
 17 11  1  0
 17 18  1  0
 18 19  2  0
 18 20  1  0
 20 21  1  0
 21 22  1  0
 21 23  1  0
 21 24  1  0
  8 25  1  0
 25 26  2  0
 26  5  1  0
M  END
> <assay_chembl_id>
CHEMBL3632054

> <assay_description>
Antiproliferative activity against human LNCAP cells incubated for 48 hrs by MTT assay

> <document_journal>
Medchemcomm

> <molecule_chembl_id>
CHEMBL3627825

> <standard_value>
37000

> <IC50_uM>
37

> <Activity>
No

> <Canonical_Smiles>
COC(=O)c1ccc(CC[C@H]2COC(C)(C)N2C(=O)OC(C)(C)C)cc1

$$$$

  SciTegic03142313312D

 31 35  0  0  0  0            999 V2000
    6.4966    0.7465    0.0000 C   0  0
    6.4963   -0.7535    0.0000 O   0  0
    5.1969   -1.5045    0.0000 C   0  0
    3.8991   -0.7525    0.0000 C   0  0
    2.5987   -1.5004    0.0000 C   0  0
    1.2990   -0.7500    0.0000 C   0  0
    1.2990    0.7500    0.0000 N   0  0
    0.0000    1.5000    0.0000 C   0  0
   -1.2990    0.7500    0.0000 C   0  0
   -1.2990   -0.7500    0.0000 C   0  0
   -2.5981   -1.5000    0.0000 C   0  0
   -2.5981   -3.0000    0.0000 C   0  0
   -1.2990   -3.7500    0.0000 C   0  0
   -1.2990   -5.2508    0.0000 C   0  0
   -2.5969   -6.0029    0.0000 C   0  0
   -2.5945   -7.5029    0.0000 C   0  0
   -1.2942   -8.2509    0.0000 C   0  0
   -0.9805   -9.7169    0.0000 N   0  0
    0.5116   -9.8713    0.0000 C   0  0
    1.1195   -8.5000    0.0000 C   0  0
    0.0036   -7.4988    0.0000 C   0  0
    0.0012   -5.9988    0.0000 C   0  0
    0.0000   -3.0000    0.0000 C   0  0
    0.0000   -1.5000    0.0000 C   0  0
    2.5965   -3.0004    0.0000 C   0  0
    3.8943   -3.7525    0.0000 C   0  0
    3.8888   -5.2533    0.0000 O   0  0
    2.5875   -5.9994    0.0000 C   0  0
    5.1945   -3.0045    0.0000 C   0  0
    6.4946   -3.7543    0.0000 O   0  0
    7.7938   -3.0046    0.0000 C   0  0
  1  2  1  0
  2  3  1  0
  3  4  2  0
  4  5  1  0
  5  6  1  0
  6  7  2  0
  7  8  1  0
  8  9  2  0
  9 10  1  0
 10 11  2  0
 11 12  1  0
 12 13  2  0
 13 14  1  0
 14 15  2  0
 15 16  1  0
 16 17  2  0
 17 18  1  0
 18 19  1  0
 19 20  2  0
 20 21  1  0
 21 17  1  0
 21 22  2  0
 22 14  1  0
 13 23  1  0
 23 24  2  0
 24  6  1  0
 24 10  1  0
  5 25  2  0
 25 26  1  0
 26 27  1  0
 27 28  1  0
 26 29  2  0
 29  3  1  0
 29 30  1  0
 30 31  1  0
M  END
> <assay_chembl_id>
CHEMBL3635955

> <assay_description>
Cytotoxicity against human LNCAP cells after 48 hrs by MTS assay

> <document_journal>
ACS Med Chem Lett

> <molecule_chembl_id>
CHEMBL3633350

> <standard_value>
81

> <IC50_uM>
0.081

> <Activity>
Yes

> <Canonical_Smiles>
COc1cc(-c2nccc3ccc(-c4ccc5[nH]ccc5c4)cc23)cc(OC)c1OC

$$$$

  SciTegic03142313312D

 28 33  0  0  0  0            999 V2000
    1.2990   -0.7500    0.0000 C   0  0
    1.2990    0.7500    0.0000 C   0  0
    0.0000    1.5000    0.0000 C   0  0
    0.0000    3.0000    0.0000 C   0  0
   -1.2991    3.7500    0.0000 C   0  0
   -2.5981    3.0000    0.0000 C   0  0
   -3.8978    3.7504    0.0000 C   0  0
   -3.9003    5.2504    0.0000 C   0  0
   -5.2005    5.9983    0.0000 C   0  0
   -6.4984    5.2463    0.0000 C   0  0
   -7.9248    5.7075    0.0000 N   0  0
   -8.8046    4.4926    0.0000 C   0  0
   -7.9210    3.2805    0.0000 C   0  0
   -6.4960    3.7463    0.0000 C   0  0
   -5.1957    2.9983    0.0000 C   0  0
   -2.5981    1.5000    0.0000 C   0  0
   -1.2990    0.7500    0.0000 C   0  0
   -1.2990   -0.7500    0.0000 C   0  0
   -2.5987   -1.5004    0.0000 C   0  0
   -3.8991   -0.7525    0.0000 C   0  0
   -5.1969   -1.5046    0.0000 C   0  0
   -5.1945   -3.0046    0.0000 C   0  0
   -6.3072   -4.0093    0.0000 N   0  0
   -5.6949   -5.3787    0.0000 C   0  0
   -4.2034   -5.2195    0.0000 C   0  0
   -3.8943   -3.7525    0.0000 C   0  0
   -2.5964   -3.0004    0.0000 C   0  0
    0.0000   -1.5000    0.0000 N   0  0
  1  2  2  0
  2  3  1  0
  3  4  2  0
  4  5  1  0
  5  6  2  0
  6  7  1  0
  7  8  2  0
  8  9  1  0
  9 10  2  0
 10 11  1  0
 11 12  1  0
 12 13  2  0
 13 14  1  0
 14 10  1  0
 14 15  2  0
 15  7  1  0
  6 16  1  0
 16 17  2  0
 17  3  1  0
 17 18  1  0
 18 19  1  0
 19 20  2  0
 20 21  1  0
 21 22  2  0
 22 23  1  0
 23 24  1  0
 24 25  2  0
 25 26  1  0
 26 22  1  0
 26 27  2  0
 27 19  1  0
 18 28  2  0
 28  1  1  0
M  END
> <assay_chembl_id>
CHEMBL3635955

> <assay_description>
Cytotoxicity against human LNCAP cells after 48 hrs by MTS assay

> <document_journal>
ACS Med Chem Lett

> <molecule_chembl_id>
CHEMBL3633353

> <standard_value>
98

> <IC50_uM>
0.098

> <Activity>
Yes

> <Canonical_Smiles>
c1cc2ccc(-c3ccc4[nH]ccc4c3)cc2c(-c2ccc3[nH]ccc3c2)n1

$$$$

  SciTegic03142313312D

 26 30  0  0  0  0            999 V2000
    6.4924   -3.7566    0.0000 F   0  0
    5.1945   -3.0045    0.0000 C   0  0
    5.1969   -1.5045    0.0000 C   0  0
    3.8991   -0.7525    0.0000 C   0  0
    2.5987   -1.5004    0.0000 C   0  0
    1.2990   -0.7500    0.0000 C   0  0
    1.2990    0.7500    0.0000 N   0  0
    0.0000    1.5000    0.0000 C   0  0
   -1.2990    0.7500    0.0000 C   0  0
   -1.2990   -0.7500    0.0000 C   0  0
   -2.5981   -1.5000    0.0000 C   0  0
   -2.5981   -3.0000    0.0000 C   0  0
   -1.2990   -3.7500    0.0000 C   0  0
   -1.2990   -5.2508    0.0000 C   0  0
   -2.5969   -6.0029    0.0000 C   0  0
   -2.5945   -7.5029    0.0000 C   0  0
   -1.2942   -8.2509    0.0000 C   0  0
   -0.9805   -9.7169    0.0000 N   0  0
    0.5116   -9.8713    0.0000 C   0  0
    1.1195   -8.5000    0.0000 C   0  0
    0.0036   -7.4988    0.0000 C   0  0
    0.0012   -5.9988    0.0000 C   0  0
    0.0000   -3.0000    0.0000 C   0  0
    0.0000   -1.5000    0.0000 C   0  0
    2.5965   -3.0004    0.0000 C   0  0
    3.8943   -3.7525    0.0000 C   0  0
  1  2  1  0
  2  3  2  0
  3  4  1  0
  4  5  2  0
  5  6  1  0
  6  7  2  0
  7  8  1  0
  8  9  2  0
  9 10  1  0
 10 11  2  0
 11 12  1  0
 12 13  2  0
 13 14  1  0
 14 15  2  0
 15 16  1  0
 16 17  2  0
 17 18  1  0
 18 19  1  0
 19 20  2  0
 20 21  1  0
 21 17  1  0
 21 22  2  0
 22 14  1  0
 13 23  1  0
 23 24  2  0
 24  6  1  0
 24 10  1  0
  5 25  1  0
 25 26  2  0
 26  2  1  0
M  END
> <assay_chembl_id>
CHEMBL3635955

> <assay_description>
Cytotoxicity against human LNCAP cells after 48 hrs by MTS assay

> <document_journal>
ACS Med Chem Lett

> <molecule_chembl_id>
CHEMBL3633354

> <standard_value>
38

> <IC50_uM>
0.038

> <Activity>
Yes

> <Canonical_Smiles>
Fc1ccc(-c2nccc3ccc(-c4ccc5[nH]ccc5c4)cc23)cc1

$$$$

  SciTegic03142313312D

 19 22  0  0  0  0            999 V2000
    2.5981   -1.5000    0.0000 N   0  0
    1.2990   -0.7500    0.0000 C   0  0
    1.2990    0.7500    0.0000 C   0  0
    0.0000    1.5000    0.0000 C   0  0
   -1.2990    0.7500    0.0000 C   0  0
   -1.2990   -0.7500    0.0000 C   0  0
    0.0000   -1.5000    0.0000 C   0  0
   -2.5981   -1.5000    0.0000 C   0  0
   -3.8971   -0.7500    0.0000 N   0  0
   -5.3229   -1.2135    0.0000 C   0  0
   -5.7863   -2.6402    0.0000 O   0  0
   -6.2045    0.0000    0.0000 C   0  0
   -7.6953    0.1560    0.0000 C   0  0
   -8.3054    1.5263    0.0000 C   0  0
   -7.4237    2.7399    0.0000 C   0  0
   -5.9319    2.5831    0.0000 C   0  0
   -5.3229    1.2135    0.0000 C   0  0
   -3.8971    0.7500    0.0000 C   0  0
   -2.5981    1.5000    0.0000 N   0  0
  1  2  1  0
  2  3  2  0
  3  4  1  0
  4  5  2  0
  5  6  1  0
  6  7  2  0
  7  2  1  0
  6  8  1  0
  8  9  1  0
  9 10  1  0
 10 11  2  0
 10 12  1  0
 12 13  2  0
 13 14  1  0
 14 15  2  0
 15 16  1  0
 16 17  2  0
 17 12  1  0
 17 18  1  0
 18  9  1  0
 18 19  2  0
 19  5  1  0
M  END
> <assay_chembl_id>
CHEMBL3743261

> <assay_description>
Cytotoxicity against human LNCAP cells after 120 hrs by MTT assay

> <document_journal>
Eur J Med Chem

> <molecule_chembl_id>
CHEMBL114283

> <standard_value>
90200

> <IC50_uM>
90.2

> <Activity>
No

> <Canonical_Smiles>
Nc1ccc2c(c1)CN1C(=O)c3ccccc3C1=N2

$$$$

  SciTegic03142313312D

 27 30  0  0  0  0            999 V2000
   11.6819   -3.7689    0.0000 C   0  0
   11.6816   -5.2689    0.0000 O   0  0
   10.3822   -6.0199    0.0000 C   0  0
   10.3798   -7.5199    0.0000 C   0  0
    9.0795   -8.2678    0.0000 C   0  0
    7.7817   -7.5157    0.0000 C   0  0
    7.7840   -6.0157    0.0000 C   0  0
    6.4870   -5.2605    0.0000 N   0  0
    6.4915   -3.7597    0.0000 C   0  0
    7.7931   -3.0140    0.0000 O   0  0
    5.1945   -3.0045    0.0000 C   0  0
    5.1969   -1.5045    0.0000 C   0  0
    3.8991   -0.7525    0.0000 N   0  0
    2.5987   -1.5004    0.0000 C   0  0
    1.2990   -0.7500    0.0000 N   0  0
    1.2990    0.7500    0.0000 C   0  0
    0.0000    1.5000    0.0000 C   0  0
   -1.2990    0.7500    0.0000 C   0  0
   -2.5981    1.5000    0.0000 C   0  0
   -3.8971    0.7500    0.0000 C   0  0
   -3.8971   -0.7500    0.0000 C   0  0
   -2.5981   -1.5000    0.0000 C   0  0
   -1.2990   -0.7500    0.0000 C   0  0
    0.0000   -1.5000    0.0000 C   0  0
    2.5965   -3.0004    0.0000 N   0  0
    3.8943   -3.7525    0.0000 C   0  0
    9.0844   -5.2678    0.0000 C   0  0
  1  2  1  0
  2  3  1  0
  3  4  2  0
  4  5  1  0
  5  6  2  0
  6  7  1  0
  7  8  1  0
  8  9  1  0
  9 10  2  0
  9 11  1  0
 11 12  2  0
 12 13  1  0
 13 14  2  0
 14 15  1  0
 15 16  1  0
 16 17  1  0
 17 18  1  0
 18 19  2  0
 19 20  1  0
 20 21  2  0
 21 22  1  0
 22 23  2  0
 23 18  1  0
 23 24  1  0
 24 15  1  0
 14 25  1  0
 25 26  2  0
 26 11  1  0
  7 27  2  0
 27  3  1  0
M  END
> <assay_chembl_id>
CHEMBL3750048

> <assay_description>
Cytotoxicity against human LNCAP cells assessed as reduction in cell viability after 4 days by MTT assay in presence of DHT and E2

> <document_journal>
Bioorg Med Chem

> <molecule_chembl_id>
CHEMBL3746283

> <standard_value>
580

> <IC50_uM>
0.58

> <Activity>
Yes

> <Canonical_Smiles>
COc1cccc(NC(=O)c2cnc(N3CCc4ccccc4C3)nc2)c1

$$$$

  SciTegic03142313312D

 28 31  0  0  0  0            999 V2000
    2.5951   -3.0031    0.0000 C   0  0
    2.5973   -1.5031    0.0000 O   0  0
    1.2990   -0.7500    0.0000 C   0  0
    1.2990    0.7500    0.0000 C   0  0
    0.0000    1.5000    0.0000 C   0  0
   -1.2990    0.7500    0.0000 C   0  0
   -1.2990   -0.7500    0.0000 C   0  0
    0.0000   -1.5000    0.0000 C   0  0
   -2.5981   -1.5000    0.0000 C   0  0
   -3.8971   -0.7500    0.0000 C   0  0
   -3.8971    0.7500    0.0000 N   0  0
   -5.1968    1.5004    0.0000 C   0  0
   -6.4971    0.7525    0.0000 C   0  0
   -7.7950    1.5045    0.0000 N   0  0
   -7.7926    3.0045    0.0000 C   0  0
   -9.0896    3.7597    0.0000 C   0  0
  -10.3912    3.0140    0.0000 O   0  0
   -9.0851    5.2605    0.0000 N   0  0
  -10.3821    6.0156    0.0000 C   0  0
  -10.3798    7.5157    0.0000 C   0  0
  -11.6776    8.2677    0.0000 C   0  0
  -12.9779    7.5198    0.0000 C   0  0
  -12.9803    6.0198    0.0000 C   0  0
  -14.2805    5.2719    0.0000 C   0  0
  -11.6825    5.2677    0.0000 N   0  0
   -6.4924    3.7525    0.0000 C   0  0
   -5.1945    3.0004    0.0000 N   0  0
   -2.5981    1.5000    0.0000 C   0  0
  1  2  1  0
  2  3  1  0
  3  4  2  0
  4  5  1  0
  5  6  2  0
  6  7  1  0
  7  8  2  0
  8  3  1  0
  7  9  1  0
  9 10  1  0
 10 11  1  0
 11 12  1  0
 12 13  2  0
 13 14  1  0
 14 15  2  0
 15 16  1  0
 16 17  2  0
 16 18  1  0
 18 19  1  0
 19 20  2  0
 20 21  1  0
 21 22  2  0
 22 23  1  0
 23 24  1  0
 23 25  2  0
 25 19  1  0
 15 26  1  0
 26 27  2  0
 27 12  1  0
 11 28  1  0
 28  6  1  0
M  END
> <assay_chembl_id>
CHEMBL3750048

> <assay_description>
Cytotoxicity against human LNCAP cells assessed as reduction in cell viability after 4 days by MTT assay in presence of DHT and E2

> <document_journal>
Bioorg Med Chem

> <molecule_chembl_id>
CHEMBL3747061

> <standard_value>
490

> <IC50_uM>
0.49

> <Activity>
Yes

> <Canonical_Smiles>
COc1ccc2c(c1)CCN(c1cnc(C(=O)Nc3cccc(C)n3)cn1)C2

$$$$

  SciTegic03142313312D

 36 40  0  0  0  0            999 V2000
   11.6824   -5.2720    0.0000 C   0  0
   10.3822   -6.0199    0.0000 C   0  0
   10.3798   -7.5199    0.0000 C   0  0
    9.0795   -8.2678    0.0000 C   0  0
    7.7817   -7.5157    0.0000 C   0  0
    7.7840   -6.0157    0.0000 C   0  0
    6.4870   -5.2605    0.0000 N   0  0
    6.4915   -3.7597    0.0000 C   0  0
    7.7931   -3.0140    0.0000 O   0  0
    5.1945   -3.0045    0.0000 C   0  0
    5.1969   -1.5045    0.0000 C   0  0
    3.8991   -0.7525    0.0000 C   0  0
    2.5987   -1.5004    0.0000 C   0  0
    1.2990   -0.7500    0.0000 N   0  0
    1.2990    0.7500    0.0000 C   0  0
    0.0000    1.5000    0.0000 C   0  0
   -1.2990    0.7500    0.0000 C   0  0
   -2.5981    1.5000    0.0000 C   0  0
   -3.8971    0.7500    0.0000 C   0  0
   -5.1984    1.4977    0.0000 O   0  0
   -6.4971    0.7454    0.0000 C   0  0
   -7.7984    1.4932    0.0000 C   0  0
   -9.0971    0.7409    0.0000 C   0  0
  -10.3984    1.4886    0.0000 C   0  0
  -11.6975    0.7386    0.0000 C   0  0
  -12.9965    1.4886    0.0000 C   0  0
  -12.9966    2.9886    0.0000 C   0  0
  -11.6976    3.7386    0.0000 C   0  0
  -10.3985    2.9887    0.0000 C   0  0
   -3.8971   -0.7500    0.0000 C   0  0
   -2.5981   -1.5000    0.0000 C   0  0
   -1.2990   -0.7500    0.0000 C   0  0
    0.0000   -1.5000    0.0000 C   0  0
    2.5965   -3.0004    0.0000 N   0  0
    3.8943   -3.7525    0.0000 C   0  0
    9.0844   -5.2678    0.0000 N   0  0
  1  2  1  0
  2  3  2  0
  3  4  1  0
  4  5  2  0
  5  6  1  0
  6  7  1  0
  7  8  1  0
  8  9  2  0
  8 10  1  0
 10 11  2  0
 11 12  1  0
 12 13  2  0
 13 14  1  0
 14 15  1  0
 15 16  1  0
 16 17  1  0
 17 18  2  0
 18 19  1  0
 19 20  1  0
 20 21  1  0
 21 22  1  0
 22 23  1  0
 23 24  1  0
 24 25  2  0
 25 26  1  0
 26 27  2  0
 27 28  1  0
 28 29  2  0
 29 24  1  0
 19 30  2  0
 30 31  1  0
 31 32  2  0
 32 17  1  0
 32 33  1  0
 33 14  1  0
 13 34  1  0
 34 35  2  0
 35 10  1  0
  6 36  2  0
 36  2  1  0
M  END
> <assay_chembl_id>
CHEMBL3750048

> <assay_description>
Cytotoxicity against human LNCAP cells assessed as reduction in cell viability after 4 days by MTT assay in presence of DHT and E2

> <document_journal>
Bioorg Med Chem

> <molecule_chembl_id>
CHEMBL3747674

> <standard_value>
350

> <IC50_uM>
0.35

> <Activity>
Yes

> <Canonical_Smiles>
Cc1cccc(NC(=O)c2ccc(N3CCc4cc(OCCCc5ccccc5)ccc4C3)nc2)n1

$$$$

  SciTegic03142313312D

 31 34  0  0  0  0            999 V2000
    5.1887   -6.0105    0.0000 C   0  0
    3.8912   -5.2578    0.0000 C   0  0
    3.8933   -3.7570    0.0000 C   0  0
    2.5951   -3.0039    0.0000 C   0  0
    2.5973   -1.5031    0.0000 O   0  0
    1.2990   -0.7500    0.0000 C   0  0
    1.2990    0.7500    0.0000 C   0  0
    0.0000    1.5000    0.0000 C   0  0
   -1.2990    0.7500    0.0000 C   0  0
   -1.2990   -0.7500    0.0000 C   0  0
    0.0000   -1.5000    0.0000 C   0  0
   -2.5981   -1.5000    0.0000 C   0  0
   -3.8971   -0.7500    0.0000 C   0  0
   -3.8971    0.7500    0.0000 N   0  0
   -5.1968    1.5004    0.0000 C   0  0
   -6.4971    0.7525    0.0000 C   0  0
   -7.7950    1.5045    0.0000 C   0  0
   -7.7926    3.0045    0.0000 C   0  0
   -9.0896    3.7597    0.0000 C   0  0
  -10.3912    3.0140    0.0000 O   0  0
   -9.0851    5.2605    0.0000 N   0  0
  -10.3821    6.0156    0.0000 C   0  0
  -10.3798    7.5157    0.0000 C   0  0
  -11.6776    8.2677    0.0000 C   0  0
  -12.9779    7.5198    0.0000 C   0  0
  -12.9803    6.0198    0.0000 C   0  0
  -14.2805    5.2719    0.0000 C   0  0
  -11.6825    5.2677    0.0000 N   0  0
   -6.4924    3.7525    0.0000 C   0  0
   -5.1945    3.0004    0.0000 N   0  0
   -2.5981    1.5000    0.0000 C   0  0
  1  2  1  0
  2  3  1  0
  3  4  1  0
  4  5  1  0
  5  6  1  0
  6  7  2  0
  7  8  1  0
  8  9  2  0
  9 10  1  0
 10 11  2  0
 11  6  1  0
 10 12  1  0
 12 13  1  0
 13 14  1  0
 14 15  1  0
 15 16  2  0
 16 17  1  0
 17 18  2  0
 18 19  1  0
 19 20  2  0
 19 21  1  0
 21 22  1  0
 22 23  2  0
 23 24  1  0
 24 25  2  0
 25 26  1  0
 26 27  1  0
 26 28  2  0
 28 22  1  0
 18 29  1  0
 29 30  2  0
 30 15  1  0
 14 31  1  0
 31  9  1  0
M  END
> <assay_chembl_id>
CHEMBL3750048

> <assay_description>
Cytotoxicity against human LNCAP cells assessed as reduction in cell viability after 4 days by MTT assay in presence of DHT and E2

> <document_journal>
Bioorg Med Chem

> <molecule_chembl_id>
CHEMBL3746643

> <standard_value>
410

> <IC50_uM>
0.41

> <Activity>
Yes

> <Canonical_Smiles>
CCCCOc1ccc2c(c1)CCN(c1ccc(C(=O)Nc3cccc(C)n3)cn1)C2

$$$$

  SciTegic03142313312D

 42 47  0  0  1  0            999 V2000
    4.8904    0.8817    0.0000 C   0  0
    3.6769    0.0000    0.0000 C   0  0
    2.2503    0.4635    0.0000 C   0  0
    1.2990   -0.7500    0.0000 C   0  0  2  0  0  0
    1.2990    0.7500    0.0000 C   0  0
    0.0000    1.5000    0.0000 C   0  0  2  0  0  0
    0.0031    3.0008    0.0000 O   0  0
   -1.2947    3.7547    0.0000 C   0  0
   -2.5955    3.0078    0.0000 C   0  0
   -1.2916    5.2547    0.0000 O   0  0
   -1.2990    0.7500    0.0000 C   0  0  2  0  0  0
   -0.1946   -0.2650    0.0000 O   0  0
    0.4009    0.8936    0.0000 C   0  0  1  0  0  0
    0.5849    1.8766    0.0000 C   0  0
    1.4244   -0.0156    0.0000 C   0  0
    1.0398   -1.4655    0.0000 C   0  0  2  0  0  0
    2.1031   -2.5235    0.0000 O   0  0
   -0.4081   -1.8573    0.0000 C   0  0
   -1.2990   -0.7500    0.0000 C   0  0  2  0  0  0
    0.2402   -2.8029    0.0000 C   0  0  3  0  0  0
    2.2503   -1.9635    0.0000 C   0  0  1  0  0  0
    3.6769   -1.5000    0.0000 C   0  0  1  0  0  0
    2.3012   -3.4569    0.0000 C   0  0  1  0  0  0
    2.7432   -4.8851    0.0000 O   0  0
    4.2054   -5.2236    0.0000 C   0  0
    5.2286   -4.1268    0.0000 O   0  0
    4.6442   -6.6588    0.0000 C   0  0
    3.6209   -7.7556    0.0000 C   0  0
    6.1064   -6.9973    0.0000 C   0  0
    6.5450   -8.4317    0.0000 C   0  0
    0.8135   -3.2650    0.0000 C   0  0  1  0  0  0
    0.0183   -4.5357    0.0000 O   0  0
    0.7235   -5.8605    0.0000 C   0  0
    2.2226   -5.9118    0.0000 O   0  0
   -0.0705   -7.1341    0.0000 C   0  0
   -1.5696   -7.0829    0.0000 C   0  0
    0.6346   -8.4590    0.0000 C   0  0
   -0.1589   -9.7319    0.0000 C   0  0
    0.0000   -1.5000    0.0000 C   0  0  2  0  0  0
    1.3073   -1.5412    0.0000 N   0  0
    2.2143   -1.9623    0.0000 C   0  0
    1.5570   -0.0622    0.0000 C   0  0
  1  2  2  0
  2  3  1  0
  4  3  1  6
  4  5  1  0
  5  6  1  0
  6  7  1  1
  7  8  1  0
  8  9  1  0
  8 10  2  0
  6 11  1  0
 11 12  1  1
 11 13  1  0
 13 14  1  6
 13 15  1  0
 15 16  1  0
 16 17  1  6
 16 18  1  0
 19 18  1  6
 19 11  1  0
 19 20  1  0
 21 20  1  6
 21  4  1  0
 21 22  1  0
 22  2  1  6
 22 23  1  0
 23 24  1  1
 24 25  1  0
 25 26  2  0
 25 27  1  0
 27 28  1  0
 27 29  2  0
 29 30  1  0
 23 31  1  0
 31 32  1  1
 32 33  1  0
 33 34  2  0
 33 35  1  0
 35 36  1  0
 35 37  2  0
 37 38  1  0
 39 31  1  1
 39  4  1  0
 39 19  1  0
 20 40  1  4
 40 41  1  0
 40 42  1  0
 42 13  1  0
M  END
> <assay_chembl_id>
CHEMBL3761145

> <assay_description>
Cytotoxicity against human LNCAP cells after 72 hrs by AlamarBlue end point assay

> <document_journal>
J Nat Prod

> <molecule_chembl_id>
CHEMBL3759949

> <standard_value>
3.1

> <IC50_uM>
0.0031

> <Activity>
Yes

> <RemovedSalts>
OC(=O)C(F)(F)F

> <Canonical_Smiles>
C=C1C[C@]23C[C@H](OC(C)=O)[C@]4(O)[C@@]5(C)C[C@H](O)C[C@]46C([C@H]2[C@H]1[C@@H](OC(=O)/C(C)=C/C)[C@@H](OC(=O)/C(C)=C/C)[C@H]36)N(C)C5.O=C(O)C(F)(F)F

$$$$

  SciTegic03142313312D

 43 48  0  0  1  0            999 V2000
    4.8904    0.8817    0.0000 C   0  0
    3.6769    0.0000    0.0000 C   0  0
    2.2503    0.4635    0.0000 C   0  0
    1.2990   -0.7500    0.0000 C   0  0  2  0  0  0
    1.2990    0.7500    0.0000 C   0  0
    0.0000    1.5000    0.0000 C   0  0  2  0  0  0
    0.0031    3.0008    0.0000 O   0  0
   -1.2947    3.7547    0.0000 C   0  0
   -2.5955    3.0078    0.0000 C   0  0
   -1.2916    5.2547    0.0000 O   0  0
   -1.2990    0.7500    0.0000 C   0  0  2  0  0  0
   -0.1946   -0.2650    0.0000 O   0  0
    0.4009    0.8936    0.0000 C   0  0  1  0  0  0
    0.5849    1.8766    0.0000 C   0  0
    1.4244   -0.0156    0.0000 C   0  0
    1.0398   -1.4655    0.0000 C   0  0  2  0  0  0
    2.1031   -2.5235    0.0000 O   0  0
   -0.4081   -1.8573    0.0000 C   0  0
   -1.2990   -0.7500    0.0000 C   0  0  2  0  0  0
    0.2402   -2.8029    0.0000 C   0  0  3  0  0  0
    2.2503   -1.9635    0.0000 C   0  0  1  0  0  0
    3.6769   -1.5000    0.0000 C   0  0  1  0  0  0
    2.3012   -3.4569    0.0000 C   0  0  1  0  0  0
    2.7432   -4.8851    0.0000 O   0  0
    4.2054   -5.2236    0.0000 C   0  0
    5.2286   -4.1268    0.0000 O   0  0
    4.6442   -6.6588    0.0000 C   0  0
    3.6209   -7.7556    0.0000 C   0  0
    6.1064   -6.9973    0.0000 C   0  0
    6.5450   -8.4317    0.0000 C   0  0
    0.8135   -3.2650    0.0000 C   0  0  1  0  0  0
    0.0183   -4.5357    0.0000 O   0  0
    0.7235   -5.8605    0.0000 C   0  0
    2.2226   -5.9118    0.0000 O   0  0
   -0.0705   -7.1341    0.0000 C   0  0
   -1.5696   -7.0829    0.0000 C   0  0
    0.6346   -8.4590    0.0000 C   0  0
   -0.1593   -9.7326    0.0000 C   0  0
    0.5454  -11.0567    0.0000 O   0  0
    0.0000   -1.5000    0.0000 C   0  0  2  0  0  0
    1.3073   -1.5412    0.0000 N   0  0
    2.2143   -1.9623    0.0000 C   0  0
    1.5570   -0.0622    0.0000 C   0  0
  1  2  2  0
  2  3  1  0
  4  3  1  6
  4  5  1  0
  5  6  1  0
  6  7  1  1
  7  8  1  0
  8  9  1  0
  8 10  2  0
  6 11  1  0
 11 12  1  1
 11 13  1  0
 13 14  1  6
 13 15  1  0
 15 16  1  0
 16 17  1  6
 16 18  1  0
 19 18  1  6
 19 11  1  0
 19 20  1  0
 21 20  1  6
 21  4  1  0
 21 22  1  0
 22  2  1  6
 22 23  1  0
 23 24  1  1
 24 25  1  0
 25 26  2  0
 25 27  1  0
 27 28  1  0
 27 29  2  0
 29 30  1  0
 23 31  1  0
 31 32  1  1
 32 33  1  0
 33 34  2  0
 33 35  1  0
 35 36  1  0
 35 37  2  0
 37 38  1  0
 38 39  1  0
 40 31  1  1
 40  4  1  0
 40 19  1  0
 20 41  1  4
 41 42  1  0
 41 43  1  0
 43 13  1  0
M  END
> <assay_chembl_id>
CHEMBL3761145

> <assay_description>
Cytotoxicity against human LNCAP cells after 72 hrs by AlamarBlue end point assay

> <document_journal>
J Nat Prod

> <molecule_chembl_id>
CHEMBL3759235

> <standard_value>
10.9

> <IC50_uM>
0.0109

> <Activity>
Yes

> <RemovedSalts>
OC(=O)C(F)(F)F

> <Canonical_Smiles>
C=C1C[C@]23C[C@H](OC(C)=O)[C@]4(O)[C@@]5(C)C[C@H](O)C[C@]46C([C@H]2[C@H]1[C@@H](OC(=O)/C(C)=C/C)[C@@H](OC(=O)/C(C)=C/CO)[C@H]36)N(C)C5.O=C(O)C(F)(F)F

$$$$

  SciTegic03142313312D

 40 45  0  0  1  0            999 V2000
    4.8904    0.8817    0.0000 C   0  0
    3.6769    0.0000    0.0000 C   0  0
    2.2503    0.4635    0.0000 C   0  0
    1.2990   -0.7500    0.0000 C   0  0  2  0  0  0
    1.2990    0.7500    0.0000 C   0  0
    0.0000    1.5000    0.0000 C   0  0  2  0  0  0
    0.0000    3.0000    0.0000 O   0  0
   -1.2990    0.7500    0.0000 C   0  0  2  0  0  0
   -0.1946   -0.2650    0.0000 O   0  0
    0.4009    0.8936    0.0000 C   0  0  1  0  0  0
    0.5849    1.8766    0.0000 C   0  0
    1.4244   -0.0156    0.0000 C   0  0
    1.0398   -1.4655    0.0000 C   0  0  2  0  0  0
    2.1031   -2.5235    0.0000 O   0  0
   -0.4081   -1.8573    0.0000 C   0  0
   -1.2990   -0.7500    0.0000 C   0  0  2  0  0  0
    0.2402   -2.8029    0.0000 C   0  0  3  0  0  0
    2.2503   -1.9635    0.0000 C   0  0  1  0  0  0
    3.6769   -1.5000    0.0000 C   0  0  1  0  0  0
    2.3012   -3.4569    0.0000 C   0  0  1  0  0  0
    2.7432   -4.8851    0.0000 O   0  0
    4.2054   -5.2236    0.0000 C   0  0
    5.2286   -4.1268    0.0000 O   0  0
    4.6442   -6.6588    0.0000 C   0  0
    3.6209   -7.7556    0.0000 C   0  0
    6.1064   -6.9973    0.0000 C   0  0
    6.5450   -8.4317    0.0000 C   0  0
    0.8135   -3.2650    0.0000 C   0  0  1  0  0  0
    0.0183   -4.5357    0.0000 O   0  0
   -1.4815   -4.4807    0.0000 C   0  0
   -2.1830   -3.1548    0.0000 O   0  0
   -2.2799   -5.7515    0.0000 C   0  0
   -1.5784   -7.0774    0.0000 C   0  0
   -3.7797   -5.6965    0.0000 C   0  0
   -4.5780   -6.9674    0.0000 C   0  0
   -6.0770   -6.9124    0.0000 O   0  0
    0.0000   -1.5000    0.0000 C   0  0  2  0  0  0
    1.3073   -1.5412    0.0000 N   0  0
    2.2143   -1.9623    0.0000 C   0  0
    1.5570   -0.0622    0.0000 C   0  0
  1  2  2  0
  2  3  1  0
  4  3  1  6
  4  5  1  0
  5  6  1  0
  6  7  1  1
  6  8  1  0
  8  9  1  1
  8 10  1  0
 10 11  1  6
 10 12  1  0
 12 13  1  0
 13 14  1  6
 13 15  1  0
 16 15  1  6
 16  8  1  0
 16 17  1  0
 18 17  1  6
 18  4  1  0
 18 19  1  0
 19  2  1  6
 19 20  1  0
 20 21  1  1
 21 22  1  0
 22 23  2  0
 22 24  1  0
 24 25  1  0
 24 26  2  0
 26 27  1  0
 20 28  1  0
 28 29  1  1
 29 30  1  0
 30 31  2  0
 30 32  1  0
 32 33  1  0
 32 34  2  0
 34 35  1  0
 35 36  1  0
 37 28  1  1
 37  4  1  0
 37 16  1  0
 17 38  1  4
 38 39  1  0
 38 40  1  0
 40 10  1  0
M  END
> <assay_chembl_id>
CHEMBL3761145

> <assay_description>
Cytotoxicity against human LNCAP cells after 72 hrs by AlamarBlue end point assay

> <document_journal>
J Nat Prod

> <molecule_chembl_id>
CHEMBL3759076

> <standard_value>
378.8

> <IC50_uM>
0.3788

> <Activity>
Yes

> <RemovedSalts>
OC(=O)C(F)(F)F

> <Canonical_Smiles>
C=C1C[C@]23C[C@H](O)[C@]4(O)[C@@]5(C)C[C@H](O)C[C@]46C([C@H]2[C@H]1[C@@H](OC(=O)/C(C)=C/C)[C@@H](OC(=O)/C(C)=C/CO)[C@H]36)N(C)C5.O=C(O)C(F)(F)F

$$$$

  SciTegic03142313312D

 41 47  0  0  1  0            999 V2000
    4.8904    0.8817    0.0000 C   0  0
    3.6769    0.0000    0.0000 C   0  0
    2.2503    0.4635    0.0000 C   0  0
    1.2990   -0.7500    0.0000 C   0  0  2  0  0  0
    1.2990    0.7500    0.0000 C   0  0
    0.0000    1.5000    0.0000 C   0  0  2  0  0  0
    0.0000    3.0000    0.0000 O   0  0
   -1.2990    0.7500    0.0000 C   0  0  2  0  0  0
   -0.1946   -0.2650    0.0000 O   0  0
    0.4009    0.8936    0.0000 C   0  0  1  0  0  0
    1.1602    0.2428    0.0000 C   0  0
    1.4244   -0.0156    0.0000 C   0  0
    1.0398   -1.4655    0.0000 C   0  0  2  0  0  0
    2.1031   -2.5235    0.0000 O   0  0
   -0.4081   -1.8573    0.0000 C   0  0
   -1.2990   -0.7500    0.0000 C   0  0  2  0  0  0
    0.2402   -2.8029    0.0000 C   0  0  3  0  0  0
    2.2503   -1.9635    0.0000 C   0  0  1  0  0  0
    3.6769   -1.5000    0.0000 C   0  0  1  0  0  0
    2.3012   -3.4569    0.0000 C   0  0  1  0  0  0
    2.7432   -4.8851    0.0000 O   0  0
    4.2054   -5.2236    0.0000 C   0  0
    5.2286   -4.1268    0.0000 O   0  0
    4.6442   -6.6588    0.0000 C   0  0
    3.6209   -7.7556    0.0000 C   0  0
    6.1064   -6.9973    0.0000 C   0  0
    6.5450   -8.4317    0.0000 C   0  0
    0.8135   -3.2650    0.0000 C   0  0  1  0  0  0
    0.0183   -4.5357    0.0000 O   0  0
   -1.4815   -4.4807    0.0000 C   0  0
   -2.1830   -3.1548    0.0000 O   0  0
   -2.2799   -5.7515    0.0000 C   0  0
   -3.7790   -5.6987    0.0000 C   0  0
   -4.5743   -6.9705    0.0000 C   0  0
   -3.8706   -8.2952    0.0000 C   0  0
   -2.3715   -8.3481    0.0000 C   0  0
   -1.5762   -7.0763    0.0000 C   0  0
    0.0000   -1.5000    0.0000 C   0  0  2  0  0  0
    1.3073   -1.5412    0.0000 N   0  0
    2.2143   -1.9623    0.0000 C   0  0
    1.5570   -0.0622    0.0000 C   0  0
  1  2  2  0
  2  3  1  0
  4  3  1  6
  4  5  1  0
  5  6  1  0
  6  7  1  1
  6  8  1  0
  8  9  1  1
  8 10  1  0
 10 11  1  6
 10 12  1  0
 12 13  1  0
 13 14  1  6
 13 15  1  0
 16 15  1  6
 16  8  1  0
 16 17  1  0
 18 17  1  6
 18  4  1  0
 18 19  1  0
 19  2  1  6
 19 20  1  0
 20 21  1  1
 21 22  1  0
 22 23  2  0
 22 24  1  0
 24 25  1  0
 24 26  2  0
 26 27  1  0
 20 28  1  0
 28 29  1  1
 29 30  1  0
 30 31  2  0
 30 32  1  0
 32 33  2  0
 33 34  1  0
 34 35  2  0
 35 36  1  0
 36 37  2  0
 37 32  1  0
 38 28  1  1
 38  4  1  0
 38 16  1  0
 17 39  1  4
 39 40  1  0
 39 41  1  0
 41 10  1  0
M  END
> <assay_chembl_id>
CHEMBL3761145

> <assay_description>
Cytotoxicity against human LNCAP cells after 72 hrs by AlamarBlue end point assay

> <document_journal>
J Nat Prod

> <molecule_chembl_id>
CHEMBL3758552

> <standard_value>
190.3

> <IC50_uM>
0.1903

> <Activity>
Yes

> <RemovedSalts>
OC(=O)C(F)(F)F

> <Canonical_Smiles>
C=C1C[C@]23C[C@H](O)[C@]4(O)[C@@]5(C)C[C@H](O)C[C@]46C([C@H]2[C@H]1[C@@H](OC(=O)/C(C)=C/C)[C@@H](OC(=O)c1ccccc1)[C@H]36)N(C)C5.O=C(O)C(F)(F)F

$$$$

  SciTegic03142313312D

 39 44  0  0  1  0            999 V2000
    4.8904    0.8817    0.0000 C   0  0
    3.6769    0.0000    0.0000 C   0  0
    2.2503    0.4635    0.0000 C   0  0
    1.2990   -0.7500    0.0000 C   0  0  2  0  0  0
    1.2990    0.7500    0.0000 C   0  0
    0.0000    1.5000    0.0000 C   0  0  2  0  0  0
    0.0000    3.0000    0.0000 O   0  0
   -1.2990    0.7500    0.0000 C   0  0  2  0  0  0
   -0.1946   -0.2650    0.0000 O   0  0
    0.4009    0.8936    0.0000 C   0  0  1  0  0  0
    0.5849    1.8766    0.0000 C   0  0
    1.4244   -0.0156    0.0000 C   0  0
    1.0398   -1.4655    0.0000 C   0  0  2  0  0  0
    2.1031   -2.5235    0.0000 O   0  0
   -0.4081   -1.8573    0.0000 C   0  0
   -1.2990   -0.7500    0.0000 C   0  0  2  0  0  0
    0.2402   -2.8029    0.0000 C   0  0  3  0  0  0
    2.2503   -1.9635    0.0000 C   0  0  1  0  0  0
    3.6769   -1.5000    0.0000 C   0  0  1  0  0  0
    2.3012   -3.4569    0.0000 C   0  0  1  0  0  0
    2.7432   -4.8851    0.0000 O   0  0
    4.2054   -5.2236    0.0000 C   0  0
    5.2286   -4.1268    0.0000 O   0  0
    4.6442   -6.6588    0.0000 C   0  0
    3.6209   -7.7556    0.0000 C   0  0
    6.1064   -6.9973    0.0000 C   0  0
    6.5450   -8.4317    0.0000 C   0  0
    0.8135   -3.2650    0.0000 C   0  0  1  0  0  0
    0.0183   -4.5357    0.0000 O   0  0
   -1.4815   -4.4807    0.0000 C   0  0
   -2.1830   -3.1548    0.0000 O   0  0
   -2.2799   -5.7515    0.0000 C   0  0
   -1.5784   -7.0774    0.0000 C   0  0
   -3.7797   -5.6965    0.0000 C   0  0
   -4.5776   -6.9667    0.0000 C   0  0
    0.0000   -1.5000    0.0000 C   0  0  2  0  0  0
    1.3073   -1.5412    0.0000 N   0  0
    2.2143   -1.9623    0.0000 C   0  0
    1.5570   -0.0622    0.0000 C   0  0
  1  2  2  0
  2  3  1  0
  4  3  1  6
  4  5  1  0
  5  6  1  0
  6  7  1  1
  6  8  1  0
  8  9  1  1
  8 10  1  0
 10 11  1  6
 10 12  1  0
 12 13  1  0
 13 14  1  6
 13 15  1  0
 16 15  1  6
 16  8  1  0
 16 17  1  0
 18 17  1  6
 18  4  1  0
 18 19  1  0
 19  2  1  6
 19 20  1  0
 20 21  1  1
 21 22  1  0
 22 23  2  0
 22 24  1  0
 24 25  1  0
 24 26  2  0
 26 27  1  0
 20 28  1  0
 28 29  1  1
 29 30  1  0
 30 31  2  0
 30 32  1  0
 32 33  1  0
 32 34  2  0
 34 35  1  0
 36 28  1  1
 36  4  1  0
 36 16  1  0
 17 37  1  4
 37 38  1  0
 37 39  1  0
 39 10  1  0
M  END
> <assay_chembl_id>
CHEMBL3761145

> <assay_description>
Cytotoxicity against human LNCAP cells after 72 hrs by AlamarBlue end point assay

> <document_journal>
J Nat Prod

> <molecule_chembl_id>
CHEMBL3760006

> <standard_value>
27.2

> <IC50_uM>
0.0272

> <Activity>
Yes

> <RemovedSalts>
OC(=O)C(F)(F)F

> <Canonical_Smiles>
C=C1C[C@]23C[C@H](O)[C@]4(O)[C@@]5(C)C[C@H](O)C[C@]46C([C@H]2[C@H]1[C@@H](OC(=O)/C(C)=C/C)[C@@H](OC(=O)/C(C)=C/C)[C@H]36)N(C)C5.O=C(O)C(F)(F)F

$$$$

  SciTegic03142313312D

 40 45  0  0  1  0            999 V2000
   -1.6053    1.9528    0.0000 C   0  0
   -0.7500    0.7205    0.0000 C   0  0
    0.7500    0.7205    0.0000 C   0  0
    1.2990   -0.7500    0.0000 C   0  0  1  0  0  0
    1.2990    0.7500    0.0000 C   0  0  1  0  0  0
    0.0000    1.5000    0.0000 C   0  0  2  0  0  0
    0.0031    3.0008    0.0000 O   0  0
    1.3039    3.7494    0.0000 C   0  0
    2.1690    3.2479    0.0000 O   0  0
    1.3070    5.2502    0.0000 C   0  0
    0.0092    6.0025    0.0000 C   0  0
    2.6078    5.9988    0.0000 C   0  0
    2.6109    7.4988    0.0000 C   0  0
   -1.2990    0.7500    0.0000 C   0  0  2  0  0  0
   -2.5973    1.5031    0.0000 O   0  0
   -3.8990    0.7562    0.0000 C   0  0
   -3.9026   -0.7438    0.0000 O   0  0
   -5.1972    1.5092    0.0000 C   0  0
   -5.1937    3.0092    0.0000 C   0  0
   -6.4990    0.7623    0.0000 C   0  0
   -7.7965    1.5150    0.0000 C   0  0
   -1.2990   -0.7500    0.0000 C   0  0  2  0  0  0
    0.0000   -1.5000    0.0000 C   0  0  2  0  0  0
    2.6305   -0.8788    0.0000 C   0  0  3  0  0  0
    4.0251   -1.3218    0.0000 N   0  0
    4.2291   -2.8079    0.0000 C   0  0
    5.2793   -0.4991    0.0000 C   0  0
    5.2004    1.4979    0.0000 C   0  0  2  0  0  0
    6.7001    1.5272    0.0000 C   0  0
    5.2012    2.9980    0.0000 C   0  0
    3.9026    3.7487    0.0000 C   0  0  2  0  0  0
    3.9034    5.2487    0.0000 O   0  0
    2.6031    2.9994    0.0000 C   0  0
    2.6021    1.5033    0.0000 C   0  0  2  0  0  0
    3.9010    0.7530    0.0000 C   0  0  1  0  0  0
    2.6018    0.0033    0.0000 O   0  0
    3.9007   -0.7470    0.0000 C   0  0  1  0  0  0
    5.1996   -1.4972    0.0000 O   0  0
    2.6015   -1.4967    0.0000 C   0  0  2  0  0  0
    2.6036   -2.9967    0.0000 O   0  0
  1  2  2  0
  2  3  1  0
  4  3  1  6
  5  4  1  1
  5  6  1  0
  6  7  1  1
  7  8  1  0
  8  9  2  0
  8 10  1  0
 10 11  1  0
 10 12  2  0
 12 13  1  0
  6 14  1  0
 14 15  1  1
 15 16  1  0
 16 17  2  0
 16 18  1  0
 18 19  1  0
 18 20  2  0
 20 21  1  0
 14 22  1  0
 22  2  1  6
 22 23  1  0
 23  4  1  0
 23 24  1  1
 24 25  1  4
 25 26  1  0
 25 27  1  0
 27 28  1  0
 28 29  1  6
 28 30  1  0
 30 31  1  0
 31 32  1  1
 31 33  1  0
 34 33  1  1
 34 24  1  0
 34  5  1  0
 34 35  1  0
 35 28  1  0
 35 36  1  6
 35 37  1  0
 37 38  1  1
 37 39  1  0
 39  4  1  0
 39 40  1  6
M  END
> <assay_chembl_id>
CHEMBL3761145

> <assay_description>
Cytotoxicity against human LNCAP cells after 72 hrs by AlamarBlue end point assay

> <document_journal>
J Nat Prod

> <molecule_chembl_id>
CHEMBL3758751

> <standard_value>
50.8

> <IC50_uM>
0.0508

> <Activity>
Yes

> <RemovedSalts>
OC(=O)C(F)(F)F

> <Canonical_Smiles>
C=C1C[C@@]23[C@H]4[C@H](OC(=O)/C(C)=C/C)[C@H](OC(=O)/C(C)=C/C)[C@@H]1[C@@H]2C1N(C)C[C@]2(C)C[C@H](O)C[C@@]14[C@]2(O)[C@@H](O)[C@@H]3O.O=C(O)C(F)(F)F

$$$$

  SciTegic03142313312D

 41 46  0  0  1  0            999 V2000
   -1.6053    1.9528    0.0000 C   0  0
   -0.7500    0.7205    0.0000 C   0  0
    0.7500    0.7205    0.0000 C   0  0
    1.2990   -0.7500    0.0000 C   0  0  1  0  0  0
    1.2990    0.7500    0.0000 C   0  0  1  0  0  0
    0.0000    1.5000    0.0000 C   0  0  2  0  0  0
    0.0031    3.0008    0.0000 O   0  0
    1.3039    3.7494    0.0000 C   0  0
    2.1690    3.2479    0.0000 O   0  0
    1.3070    5.2502    0.0000 C   0  0
    0.0092    6.0025    0.0000 C   0  0
    2.6078    5.9988    0.0000 C   0  0
    2.6109    7.4996    0.0000 C   0  0
    3.9110    8.2478    0.0000 O   0  0
   -1.2990    0.7500    0.0000 C   0  0  2  0  0  0
   -2.5973    1.5031    0.0000 O   0  0
   -3.8990    0.7562    0.0000 C   0  0
   -3.9026   -0.7438    0.0000 O   0  0
   -5.1972    1.5092    0.0000 C   0  0
   -5.1937    3.0092    0.0000 C   0  0
   -6.4990    0.7623    0.0000 C   0  0
   -7.7965    1.5150    0.0000 C   0  0
   -1.2990   -0.7500    0.0000 C   0  0  2  0  0  0
    0.0000   -1.5000    0.0000 C   0  0  2  0  0  0
    2.6305   -0.8788    0.0000 C   0  0  3  0  0  0
    4.0251   -1.3218    0.0000 N   0  0
    4.2291   -2.8079    0.0000 C   0  0
    5.2793   -0.4991    0.0000 C   0  0
    5.2004    1.4979    0.0000 C   0  0  2  0  0  0
    6.7001    1.5272    0.0000 C   0  0
    5.2012    2.9980    0.0000 C   0  0
    3.9026    3.7487    0.0000 C   0  0  2  0  0  0
    3.9034    5.2487    0.0000 O   0  0
    2.6031    2.9994    0.0000 C   0  0
    2.6021    1.5033    0.0000 C   0  0  2  0  0  0
    3.9010    0.7530    0.0000 C   0  0  1  0  0  0
    2.6018    0.0033    0.0000 O   0  0
    3.9007   -0.7470    0.0000 C   0  0  1  0  0  0
    5.1996   -1.4972    0.0000 O   0  0
    2.6015   -1.4967    0.0000 C   0  0  2  0  0  0
    2.6036   -2.9967    0.0000 O   0  0
  1  2  2  0
  2  3  1  0
  4  3  1  6
  5  4  1  1
  5  6  1  0
  6  7  1  1
  7  8  1  0
  8  9  2  0
  8 10  1  0
 10 11  1  0
 10 12  2  0
 12 13  1  0
 13 14  1  0
  6 15  1  0
 15 16  1  1
 16 17  1  0
 17 18  2  0
 17 19  1  0
 19 20  1  0
 19 21  2  0
 21 22  1  0
 15 23  1  0
 23  2  1  6
 23 24  1  0
 24  4  1  0
 24 25  1  1
 25 26  1  4
 26 27  1  0
 26 28  1  0
 28 29  1  0
 29 30  1  6
 29 31  1  0
 31 32  1  0
 32 33  1  1
 32 34  1  0
 35 34  1  1
 35 25  1  0
 35  5  1  0
 35 36  1  0
 36 29  1  0
 36 37  1  6
 36 38  1  0
 38 39  1  1
 38 40  1  0
 40  4  1  0
 40 41  1  6
M  END
> <assay_chembl_id>
CHEMBL3761145

> <assay_description>
Cytotoxicity against human LNCAP cells after 72 hrs by AlamarBlue end point assay

> <document_journal>
J Nat Prod

> <molecule_chembl_id>
CHEMBL3759946

> <standard_value>
72.6

> <IC50_uM>
0.0726

> <Activity>
Yes

> <RemovedSalts>
OC(=O)C(F)(F)F

> <Canonical_Smiles>
C=C1C[C@@]23[C@H]4[C@H](OC(=O)/C(C)=C/CO)[C@H](OC(=O)/C(C)=C/C)[C@@H]1[C@@H]2C1N(C)C[C@]2(C)C[C@H](O)C[C@@]14[C@]2(O)[C@@H](O)[C@@H]3O.O=C(O)C(F)(F)F

$$$$

  SciTegic03142313312D

 42 48  0  0  1  0            999 V2000
    4.2057    1.9408    0.0000 C   0  0
    3.3453    0.7121    0.0000 C   0  0
    1.8453    0.7182    0.0000 C   0  0
    1.2903   -0.7500    0.0000 C   0  0  1  0  0  0
    1.2964    0.7500    0.0000 C   0  0  1  0  0  0
    2.5985    1.4947    0.0000 C   0  0  2  0  0  0
    2.6016    2.9955    0.0000 O   0  0
    1.3039    3.7494    0.0000 C   0  0
    0.4367    3.2515    0.0000 O   0  0
    1.3070    5.2502    0.0000 C   0  0
    2.6060    6.0003    0.0000 C   0  0
    2.6060    7.5003    0.0000 C   0  0
    1.3070    8.2503    0.0000 C   0  0
    0.0079    7.5003    0.0000 C   0  0
    0.0079    6.0003    0.0000 C   0  0
    3.8945    0.7393    0.0000 C   0  0  2  0  0  0
    5.1958    1.4871    0.0000 O   0  0
    5.1998    2.9879    0.0000 C   0  0
    3.9026    3.7410    0.0000 O   0  0
    6.5011    3.7356    0.0000 C   0  0
    7.7984    2.9826    0.0000 C   0  0
    6.5051    5.2365    0.0000 C   0  0
    7.8057    5.9838    0.0000 C   0  0
    3.8883   -0.7607    0.0000 C   0  0  2  0  0  0
    2.5862   -1.5053    0.0000 C   0  0  2  0  0  0
   -0.0417   -0.8733    0.0000 C   0  0  3  0  0  0
   -1.4381   -1.3106    0.0000 N   0  0
   -1.6483   -2.7958    0.0000 C   0  0
   -2.6890   -0.4828    0.0000 C   0  0
   -2.6018    1.5140    0.0000 C   0  0  2  0  0  0
   -4.1014    1.5493    0.0000 C   0  0
   -2.5965    3.0140    0.0000 C   0  0
   -1.2948    3.7593    0.0000 C   0  0  2  0  0  0
   -1.2895    5.2593    0.0000 O   0  0
    0.0016    3.0047    0.0000 C   0  0
   -0.0035    1.5086    0.0000 C   0  0  2  0  0  0
   -1.3055    0.7637    0.0000 C   0  0  1  0  0  0
   -0.0094    0.0087    0.0000 O   0  0
   -1.3113   -0.7363    0.0000 C   0  0  1  0  0  0
   -2.6133   -1.4812    0.0000 O   0  0
   -0.0152   -1.4913    0.0000 C   0  0  2  0  0  0
   -0.0235   -2.9913    0.0000 O   0  0
  1  2  2  0
  2  3  1  0
  4  3  1  1
  5  4  1  6
  5  6  1  0
  6  7  1  6
  7  8  1  0
  8  9  2  0
  8 10  1  0
 10 11  2  0
 11 12  1  0
 12 13  2  0
 13 14  1  0
 14 15  2  0
 15 10  1  0
  6 16  1  0
 16 17  1  6
 17 18  1  0
 18 19  2  0
 18 20  1  0
 20 21  1  0
 20 22  2  0
 22 23  1  0
 16 24  1  0
 24  2  1  1
 24 25  1  0
 25  4  1  0
 25 26  1  6
 26 27  1  4
 27 28  1  0
 27 29  1  0
 29 30  1  0
 30 31  1  1
 30 32  1  0
 32 33  1  0
 33 34  1  6
 33 35  1  0
 36 35  1  6
 36 26  1  0
 36  5  1  0
 36 37  1  0
 37 30  1  0
 37 38  1  1
 37 39  1  0
 39 40  1  6
 39 41  1  0
 41  4  1  0
 41 42  1  1
M  END
> <assay_chembl_id>
CHEMBL3761145

> <assay_description>
Cytotoxicity against human LNCAP cells after 72 hrs by AlamarBlue end point assay

> <document_journal>
J Nat Prod

> <molecule_chembl_id>
CHEMBL3758293

> <standard_value>
6.7

> <IC50_uM>
0.0067

> <Activity>
Yes

> <RemovedSalts>
OC(=O)C(F)(F)F

> <Canonical_Smiles>
C=C1C[C@@]23[C@H]4[C@H](OC(=O)c5ccccc5)[C@H](OC(=O)/C(C)=C/C)[C@@H]1[C@@H]2C1N(C)C[C@]2(C)C[C@H](O)C[C@@]14[C@]2(O)[C@@H](O)[C@@H]3O.O=C(O)C(F)(F)F

$$$$

  SciTegic03142313312D

 59 67  0  0  1  0            999 V2000
    2.3980    5.1974    0.0000 C   0  0
    1.0617    4.5159    0.0000 C   0  0
   -0.2000    5.2900    0.0000 C   0  0  2  0  0  0
   -0.2341    6.7896    0.0000 O   0  0
   -0.2000    4.0900    0.0000 C   0  0
   -1.2300    3.5100    0.0000 C   0  0  1  0  0  0
   -2.2500    4.0900    0.0000 C   0  0
   -2.2500    5.2900    0.0000 N   0  0  3  0  0  0
   -3.9200    5.5000    0.0000 C   0  0
   -5.4100    4.7800    0.0000 C   0  0
   -5.7000    3.1300    0.0000 C   0  0
   -4.9700    1.7900    0.0000 C   0  0
   -6.0100    0.6800    0.0000 N   0  0
   -7.4000    1.3200    0.0000 C   0  0
   -8.8100    0.7400    0.0000 C   0  0
  -10.0200    1.6700    0.0000 C   0  0
   -9.8300    3.1800    0.0000 C   0  0
   -8.4200    3.7700    0.0000 C   0  0
   -7.2000    2.8400    0.0000 C   0  0
   -3.3800    1.2800    0.0000 C   0  0  1  0  0  0
   -4.3011    0.1350    0.0000 C   0  0
   -5.7734    0.4218    0.0000 O   0  0
   -3.8135   -1.2844    0.0000 O   0  0
   -4.7977   -2.4164    0.0000 C   0  0
   -2.3301    0.2513    0.0000 C   0  0
   -2.7110   -1.1720    0.0000 C   0  0
   -1.6165   -2.2180    0.0000 C   0  0
   -0.2693   -1.8150    0.0000 C   0  0
    0.1414   -0.3694    0.0000 C   0  0
   -0.9061    0.6597    0.0000 C   0  0
   -0.5303    2.1129    0.0000 O   0  0
    0.4332    2.3808    0.0000 C   0  0
    0.6269   -3.0200    0.0000 N   0  0
    2.1267   -3.0420    0.0000 C   0  0
   -0.2779   -4.1651    0.0000 C   0  0  1  0  0  0
   -0.0140   -5.6041    0.0000 C   0  0  1  0  0  0
    1.0936   -4.5926    0.0000 O   0  0
    0.2302   -7.0636    0.0000 C   0  0
   -0.5575   -7.6797    0.0000 O   0  0
    1.6218   -7.6255    0.0000 O   0  0
    1.8319   -9.1108    0.0000 C   0  0
   -1.1529   -6.6124    0.0000 C   0  0  2  0  0  0
   -0.8799   -8.0880    0.0000 O   0  0
   -2.0206   -9.0633    0.0000 C   0  0
   -1.8376  -10.0464    0.0000 C   0  0
   -3.4352   -8.5642    0.0000 O   0  0
   -2.5335   -6.1188    0.0000 C   0  0  2  0  0  0
   -2.2630   -7.5946    0.0000 C   0  0
   -3.0242   -8.2431    0.0000 C   0  0
   -3.6287   -7.0542    0.0000 C   0  0
   -5.0406   -6.5494    0.0000 C   0  0
   -5.3459   -4.5824    0.0000 C   0  0
   -4.0445   -3.8623    0.0000 N   0  0  3  0  0  0
   -3.7291   -2.4358    0.0000 C   0  0
   -2.2452   -2.2939    0.0000 C   0  0
   -1.6741   -3.6659    0.0000 C   0  0  2  0  0  0
   -2.8019   -4.6427    0.0000 C   0  0  2  0  0  0
   -1.8700    1.9700    0.0000 C   0  0
   -1.2300    5.8900    0.0000 C   0  0
  1  2  1  0
  2  3  1  0
  3  4  1  1
  3  5  1  0
  6  5  1  6
  6  7  1  0
  8  7  1  4
  8  9  1  0
  9 10  1  0
 10 11  1  0
 11 12  2  0
 12 13  1  0
 13 14  1  0
 14 15  2  0
 15 16  1  0
 16 17  2  0
 17 18  1  0
 18 19  2  0
 19 11  1  0
 19 14  1  0
 12 20  1  0
 20 21  1  1
 21 22  2  0
 21 23  1  0
 23 24  1  0
 20 25  1  0
 25 26  2  0
 26 27  1  0
 27 28  2  0
 28 29  1  0
 29 30  2  0
 30 25  1  0
 30 31  1  0
 31 32  1  0
 28 33  1  0
 33 34  1  0
 35 33  1  1
 35 36  1  0
 36 37  1  6
 36 38  1  0
 38 39  2  0
 38 40  1  0
 40 41  1  0
 36 42  1  0
 42 43  1  6
 43 44  1  0
 44 45  1  0
 44 46  2  0
 42 47  1  0
 47 48  1  1
 48 49  1  0
 47 50  1  0
 50 51  2  0
 51 52  1  0
 53 52  1  4
 53 54  1  0
 54 55  1  0
 56 55  1  6
 56 27  1  0
 56 35  1  0
 56 57  1  0
 57 53  1  6
 57 47  1  0
 20 58  1  0
 58  6  1  0
  8 59  1  0
 59  3  1  0
M  END
> <assay_chembl_id>
CHEMBL3761145

> <assay_description>
Cytotoxicity against human LNCAP cells after 72 hrs by AlamarBlue end point assay

> <document_journal>
J Nat Prod

> <molecule_chembl_id>
CHEMBL22969

> <standard_value>
3.2

> <IC50_uM>
0.0032

> <Activity>
Yes

> <Canonical_Smiles>
CC[C@]1(O)C[C@H]2CN(CCc3c([nH]c4ccccc34)[C@@](C(=O)OC)(c3cc4c(cc3OC)N(C)[C@H]3[C@@](O)(C(=O)OC)[C@H](OC(C)=O)[C@]5(CC)C=CCN6CC[C@]43[C@@H]65)C2)C1

$$$$

  SciTegic03142313312D

 37 41  0  0  1  0            999 V2000
    3.8926   -3.7566    0.0000 C   0  0
    2.5951   -3.0039    0.0000 C   0  0
    2.5973   -1.5031    0.0000 O   0  0
    1.2990   -0.7500    0.0000 C   0  0
    1.2990    0.7500    0.0000 C   0  0
    0.0000    1.5000    0.0000 C   0  0
    0.0000    3.0000    0.0000 O   0  0
   -1.2990    0.7500    0.0000 C   0  0
   -1.2990   -0.7500    0.0000 C   0  0
    0.0000   -1.5000    0.0000 C   0  0
   -2.5981   -1.5000    0.0000 O   0  0
   -3.8971   -0.7500    0.0000 C   0  0  2  0  0  0
   -5.1968   -1.5004    0.0000 C   0  0
   -6.4971   -0.7525    0.0000 C   0  0
   -7.7950   -1.5046    0.0000 C   0  0
   -7.7926   -3.0046    0.0000 C   0  0
   -6.4924   -3.7525    0.0000 C   0  0
   -5.1945   -3.0005    0.0000 C   0  0
   -6.4900   -5.2525    0.0000 O   0  0
   -7.7878   -6.0046    0.0000 C   0  0  3  0  0  0
   -7.7854   -7.5053    0.0000 C   0  0
   -6.4864   -8.2554    0.0000 C   0  0
   -6.4864   -9.7554    0.0000 C   0  0
   -7.7854  -10.5054    0.0000 C   0  0
   -7.7854  -12.0054    0.0000 O   0  0
   -9.0845   -9.7554    0.0000 C   0  0
  -10.3858  -10.5032    0.0000 O   0  0
  -11.6837   -9.7513    0.0000 C   0  0
   -9.0845   -8.2554    0.0000 C   0  0
   -9.0880   -5.2566    0.0000 C   0  0  3  0  0  0
  -10.3882   -6.0065    0.0000 C   0  0
  -11.6873   -5.2567    0.0000 O   0  0
   -9.0904   -3.7566    0.0000 O   0  0
   -3.8971    0.7500    0.0000 C   0  0  1  0  0  0
   -5.1962    1.5000    0.0000 O   0  0
   -2.5981    1.5000    0.0000 C   0  0
   -2.5981    3.0000    0.0000 O   0  0
  1  2  1  0
  2  3  1  0
  3  4  1  0
  4  5  2  0
  5  6  1  0
  6  7  1  0
  6  8  2  0
  8  9  1  0
  9 10  2  0
 10  4  1  0
  9 11  1  0
 11 12  1  0
 12 13  1  6
 13 14  2  0
 14 15  1  0
 15 16  2  0
 16 17  1  0
 17 18  2  0
 18 13  1  0
 17 19  1  0
 19 20  1  0
 20 21  1  4
 21 22  2  0
 22 23  1  0
 23 24  2  0
 24 25  1  0
 24 26  1  0
 26 27  1  0
 27 28  1  0
 26 29  2  0
 29 21  1  0
 20 30  1  0
 30 31  1  4
 31 32  1  0
 30 33  1  0
 33 16  1  0
 12 34  1  0
 34 35  1  1
 34 36  1  0
 36  8  1  0
 36 37  2  0
M  END
> <assay_chembl_id>
CHEMBL3768855

> <assay_description>
Antiproliferative activity against human LNCAP cells assessed as reduction in cell viability after 3 days by WST-1 cell proliferation assay

> <document_journal>
Eur J Med Chem

> <molecule_chembl_id>
CHEMBL3763893

> <standard_value>
350

> <IC50_uM>
0.35

> <Activity>
Yes

> <Canonical_Smiles>
CCOc1cc(O)c2c(c1)O[C@H](c1ccc3c(c1)OC(c1ccc(O)c(OC)c1)C(CO)O3)[C@@H](O)C2=O

$$$$

  SciTegic03142313312D

 36 40  0  0  1  0            999 V2000
    2.5951   -3.0031    0.0000 C   0  0
    2.5973   -1.5031    0.0000 O   0  0
    1.2990   -0.7500    0.0000 C   0  0
    1.2990    0.7500    0.0000 C   0  0
    0.0000    1.5000    0.0000 C   0  0
    0.0000    3.0000    0.0000 O   0  0
   -1.2990    0.7500    0.0000 C   0  0
   -1.2990   -0.7500    0.0000 C   0  0
    0.0000   -1.5000    0.0000 C   0  0
   -2.5981   -1.5000    0.0000 O   0  0
   -3.8971   -0.7500    0.0000 C   0  0  2  0  0  0
   -5.1968   -1.5004    0.0000 C   0  0
   -6.4971   -0.7525    0.0000 C   0  0
   -7.7950   -1.5046    0.0000 C   0  0
   -7.7926   -3.0046    0.0000 C   0  0
   -6.4924   -3.7525    0.0000 C   0  0
   -5.1945   -3.0005    0.0000 C   0  0
   -6.4900   -5.2525    0.0000 O   0  0
   -7.7878   -6.0046    0.0000 C   0  0  3  0  0  0
   -7.7854   -7.5053    0.0000 C   0  0
   -6.4864   -8.2554    0.0000 C   0  0
   -6.4864   -9.7554    0.0000 C   0  0
   -7.7854  -10.5054    0.0000 C   0  0
   -7.7854  -12.0054    0.0000 O   0  0
   -9.0845   -9.7554    0.0000 C   0  0
  -10.3858  -10.5032    0.0000 O   0  0
  -11.6837   -9.7513    0.0000 C   0  0
   -9.0845   -8.2554    0.0000 C   0  0
   -9.0880   -5.2566    0.0000 C   0  0  3  0  0  0
  -10.3882   -6.0065    0.0000 C   0  0
  -11.6873   -5.2567    0.0000 O   0  0
   -9.0904   -3.7566    0.0000 O   0  0
   -3.8971    0.7500    0.0000 C   0  0  1  0  0  0
   -5.1962    1.5000    0.0000 O   0  0
   -2.5981    1.5000    0.0000 C   0  0
   -2.5981    3.0000    0.0000 O   0  0
  1  2  1  0
  2  3  1  0
  3  4  2  0
  4  5  1  0
  5  6  1  0
  5  7  2  0
  7  8  1  0
  8  9  2  0
  9  3  1  0
  8 10  1  0
 10 11  1  0
 11 12  1  6
 12 13  2  0
 13 14  1  0
 14 15  2  0
 15 16  1  0
 16 17  2  0
 17 12  1  0
 16 18  1  0
 18 19  1  0
 19 20  1  4
 20 21  2  0
 21 22  1  0
 22 23  2  0
 23 24  1  0
 23 25  1  0
 25 26  1  0
 26 27  1  0
 25 28  2  0
 28 20  1  0
 19 29  1  0
 29 30  1  4
 30 31  1  0
 29 32  1  0
 32 15  1  0
 11 33  1  0
 33 34  1  1
 33 35  1  0
 35  7  1  0
 35 36  2  0
M  END
> <assay_chembl_id>
CHEMBL3768855

> <assay_description>
Antiproliferative activity against human LNCAP cells assessed as reduction in cell viability after 3 days by WST-1 cell proliferation assay

> <document_journal>
Eur J Med Chem

> <molecule_chembl_id>
CHEMBL3764710

> <standard_value>
440

> <IC50_uM>
0.44

> <Activity>
Yes

> <Canonical_Smiles>
COc1cc(O)c2c(c1)O[C@H](c1ccc3c(c1)OC(c1ccc(O)c(OC)c1)C(CO)O3)[C@@H](O)C2=O

$$$$

  SciTegic03142313312D

 35 39  0  0  1  0            999 V2000
    6.4966    0.7465    0.0000 C   0  0
    6.4963   -0.7535    0.0000 O   0  0
    5.1969   -1.5045    0.0000 C   0  0
    3.8991   -0.7525    0.0000 C   0  0
    2.5987   -1.5004    0.0000 C   0  0
    1.2990   -0.7500    0.0000 C   0  0  3  0  0  0
    1.2990    0.7500    0.0000 O   0  0
    0.0000    1.5000    0.0000 C   0  0
    0.0000    3.0000    0.0000 C   0  0
   -1.2991    3.7500    0.0000 C   0  0
   -1.2991    5.2507    0.0000 C   0  0  1  0  0  0
   -2.5993    5.9988    0.0000 O   0  0
   -2.6017    7.4988    0.0000 C   0  0
   -3.9019    8.2467    0.0000 C   0  0
   -3.9043    9.7467    0.0000 C   0  0
   -5.2045   10.4947    0.0000 O   0  0
   -2.6065   10.4988    0.0000 C   0  0
   -1.3062    9.7509    0.0000 C   0  0
   -0.0084   10.5029    0.0000 O   0  0
   -1.3039    8.2509    0.0000 C   0  0
   -0.0036    7.5029    0.0000 C   0  0
    1.2942    8.2550    0.0000 O   0  0
   -0.0012    6.0029    0.0000 C   0  0  2  0  0  0
    1.2990    5.2550    0.0000 O   0  0
   -2.5981    3.0000    0.0000 C   0  0
   -2.5981    1.5000    0.0000 C   0  0
   -1.2990    0.7500    0.0000 C   0  0
   -1.2990   -0.7500    0.0000 O   0  0
    0.0000   -1.5000    0.0000 C   0  0  3  0  0  0
   -0.0031   -3.0008    0.0000 C   0  0
   -1.3032   -3.7490    0.0000 O   0  0
    2.5965   -3.0004    0.0000 C   0  0
    3.8943   -3.7525    0.0000 C   0  0
    5.1945   -3.0045    0.0000 C   0  0
    6.4924   -3.7566    0.0000 O   0  0
  1  2  1  0
  2  3  1  0
  3  4  2  0
  4  5  1  0
  6  5  1  4
  6  7  1  0
  7  8  1  0
  8  9  2  0
  9 10  1  0
 11 10  1  1
 11 12  1  0
 12 13  1  0
 13 14  2  0
 14 15  1  0
 15 16  1  0
 15 17  2  0
 17 18  1  0
 18 19  1  0
 18 20  2  0
 20 13  1  0
 20 21  1  0
 21 22  2  0
 21 23  1  0
 23 11  1  0
 23 24  1  6
 10 25  2  0
 25 26  1  0
 26 27  2  0
 27  8  1  0
 27 28  1  0
 28 29  1  0
 29  6  1  0
 29 30  1  4
 30 31  1  0
  5 32  2  0
 32 33  1  0
 33 34  2  0
 34  3  1  0
 34 35  1  0
M  END
> <assay_chembl_id>
CHEMBL3768855

> <assay_description>
Antiproliferative activity against human LNCAP cells assessed as reduction in cell viability after 3 days by WST-1 cell proliferation assay

> <document_journal>
Eur J Med Chem

> <molecule_chembl_id>
CHEMBL9509

> <standard_value>
43030

> <IC50_uM>
43.03

> <Activity>
No

> <Canonical_Smiles>
COc1cc(C2Oc3cc([C@H]4Oc5cc(O)cc(O)c5C(=O)[C@@H]4O)ccc3OC2CO)ccc1O

$$$$

  SciTegic03142313312D

 43 47  0  0  0  0            999 V2000
    5.1887   -6.0105    0.0000 C   0  0
    3.8912   -5.2578    0.0000 C   0  0
    3.8933   -3.7570    0.0000 C   0  0
    2.5951   -3.0039    0.0000 C   0  0
    2.5973   -1.5031    0.0000 O   0  0
    1.2990   -0.7500    0.0000 C   0  0
    1.2990    0.7500    0.0000 C   0  0
    0.0000    1.5000    0.0000 C   0  0
    0.0000    3.0000    0.0000 O   0  0
   -1.2990    0.7500    0.0000 C   0  0
   -2.5981    1.5000    0.0000 C   0  0
   -2.5981    3.0000    0.0000 O   0  0
   -3.8971    0.7500    0.0000 C   0  0
   -5.1984    1.4977    0.0000 O   0  0
   -6.4971    0.7454    0.0000 C   0  0
   -7.7984    1.4932    0.0000 C   0  0
   -9.0971    0.7409    0.0000 C   0  0
  -10.3977    1.4882    0.0000 C   0  0
   -3.8971   -0.7500    0.0000 C   0  0
   -5.1968   -1.5004    0.0000 C   0  0
   -6.4971   -0.7525    0.0000 C   0  0
   -7.7950   -1.5046    0.0000 C   0  0
   -7.7926   -3.0046    0.0000 C   0  0
   -6.4923   -3.7525    0.0000 C   0  0
   -5.1945   -3.0005    0.0000 C   0  0
   -6.4900   -5.2525    0.0000 O   0  0
   -7.7878   -6.0046    0.0000 C   0  0  3  0  0  0
   -7.7854   -7.5053    0.0000 C   0  0
   -6.4864   -8.2555    0.0000 C   0  0
   -6.4864   -9.7555    0.0000 C   0  0
   -7.7854  -10.5055    0.0000 C   0  0
   -7.7854  -12.0055    0.0000 O   0  0
   -9.0844   -9.7555    0.0000 C   0  0
  -10.3857  -10.5032    0.0000 O   0  0
  -11.6837   -9.7514    0.0000 C   0  0
   -9.0844   -8.2555    0.0000 C   0  0
   -9.0880   -5.2567    0.0000 C   0  0  3  0  0  0
  -10.3881   -6.0065    0.0000 C   0  0
  -11.6873   -5.2567    0.0000 O   0  0
   -9.0904   -3.7567    0.0000 O   0  0
   -2.5981   -1.5000    0.0000 O   0  0
   -1.2990   -0.7500    0.0000 C   0  0
    0.0000   -1.5000    0.0000 C   0  0
  1  2  1  0
  2  3  1  0
  3  4  1  0
  4  5  1  0
  5  6  1  0
  6  7  2  0
  7  8  1  0
  8  9  1  0
  8 10  2  0
 10 11  1  0
 11 12  2  0
 11 13  1  0
 13 14  1  0
 14 15  1  0
 15 16  1  0
 16 17  1  0
 17 18  1  0
 13 19  2  0
 19 20  1  0
 20 21  2  0
 21 22  1  0
 22 23  2  0
 23 24  1  0
 24 25  2  0
 25 20  1  0
 24 26  1  0
 26 27  1  0
 27 28  1  4
 28 29  2  0
 29 30  1  0
 30 31  2  0
 31 32  1  0
 31 33  1  0
 33 34  1  0
 34 35  1  0
 33 36  2  0
 36 28  1  0
 27 37  1  0
 37 38  1  4
 38 39  1  0
 37 40  1  0
 40 23  1  0
 19 41  1  0
 41 42  1  0
 42 10  1  0
 42 43  2  0
 43  6  1  0
M  END
> <assay_chembl_id>
CHEMBL3768855

> <assay_description>
Antiproliferative activity against human LNCAP cells assessed as reduction in cell viability after 3 days by WST-1 cell proliferation assay

> <document_journal>
Eur J Med Chem

> <molecule_chembl_id>
CHEMBL3764016

> <standard_value>
46570

> <IC50_uM>
46.57

> <Activity>
No

> <Canonical_Smiles>
CCCCOc1cc(O)c2c(=O)c(OCCCC)c(-c3ccc4c(c3)OC(c3ccc(O)c(OC)c3)C(CO)O4)oc2c1

$$$$

  SciTegic03142313312D

 45 49  0  0  0  0            999 V2000
    5.1873   -7.5109    0.0000 C   0  0
    5.1894   -6.0109    0.0000 C   0  0
    3.8912   -5.2578    0.0000 C   0  0
    3.8933   -3.7570    0.0000 C   0  0
    2.5951   -3.0039    0.0000 C   0  0
    2.5973   -1.5031    0.0000 O   0  0
    1.2990   -0.7500    0.0000 C   0  0
    1.2990    0.7500    0.0000 C   0  0
    0.0000    1.5000    0.0000 C   0  0
    0.0000    3.0000    0.0000 O   0  0
   -1.2990    0.7500    0.0000 C   0  0
   -2.5981    1.5000    0.0000 C   0  0
   -2.5981    3.0000    0.0000 O   0  0
   -3.8971    0.7500    0.0000 C   0  0
   -5.1984    1.4977    0.0000 O   0  0
   -6.4971    0.7454    0.0000 C   0  0
   -7.7984    1.4932    0.0000 C   0  0
   -9.0971    0.7409    0.0000 C   0  0
  -10.3984    1.4886    0.0000 C   0  0
  -11.6963    0.7368    0.0000 C   0  0
   -3.8971   -0.7500    0.0000 C   0  0
   -5.1968   -1.5004    0.0000 C   0  0
   -6.4971   -0.7525    0.0000 C   0  0
   -7.7950   -1.5046    0.0000 C   0  0
   -7.7926   -3.0046    0.0000 C   0  0
   -6.4923   -3.7525    0.0000 C   0  0
   -5.1945   -3.0005    0.0000 C   0  0
   -6.4900   -5.2525    0.0000 O   0  0
   -7.7878   -6.0046    0.0000 C   0  0  3  0  0  0
   -7.7854   -7.5053    0.0000 C   0  0
   -6.4864   -8.2555    0.0000 C   0  0
   -6.4864   -9.7555    0.0000 C   0  0
   -7.7854  -10.5055    0.0000 C   0  0
   -7.7854  -12.0055    0.0000 O   0  0
   -9.0844   -9.7555    0.0000 C   0  0
  -10.3857  -10.5032    0.0000 O   0  0
  -11.6837   -9.7514    0.0000 C   0  0
   -9.0844   -8.2555    0.0000 C   0  0
   -9.0880   -5.2567    0.0000 C   0  0  3  0  0  0
  -10.3881   -6.0065    0.0000 C   0  0
  -11.6873   -5.2567    0.0000 O   0  0
   -9.0904   -3.7567    0.0000 O   0  0
   -2.5981   -1.5000    0.0000 O   0  0
   -1.2990   -0.7500    0.0000 C   0  0
    0.0000   -1.5000    0.0000 C   0  0
  1  2  1  0
  2  3  1  0
  3  4  1  0
  4  5  1  0
  5  6  1  0
  6  7  1  0
  7  8  2  0
  8  9  1  0
  9 10  1  0
  9 11  2  0
 11 12  1  0
 12 13  2  0
 12 14  1  0
 14 15  1  0
 15 16  1  0
 16 17  1  0
 17 18  1  0
 18 19  1  0
 19 20  1  0
 14 21  2  0
 21 22  1  0
 22 23  2  0
 23 24  1  0
 24 25  2  0
 25 26  1  0
 26 27  2  0
 27 22  1  0
 26 28  1  0
 28 29  1  0
 29 30  1  4
 30 31  2  0
 31 32  1  0
 32 33  2  0
 33 34  1  0
 33 35  1  0
 35 36  1  0
 36 37  1  0
 35 38  2  0
 38 30  1  0
 29 39  1  0
 39 40  1  4
 40 41  1  0
 39 42  1  0
 42 25  1  0
 21 43  1  0
 43 44  1  0
 44 11  1  0
 44 45  2  0
 45  7  1  0
M  END
> <assay_chembl_id>
CHEMBL3768855

> <assay_description>
Antiproliferative activity against human LNCAP cells assessed as reduction in cell viability after 3 days by WST-1 cell proliferation assay

> <document_journal>
Eur J Med Chem

> <molecule_chembl_id>
CHEMBL3764735

> <standard_value>
28740

> <IC50_uM>
28.74

> <Activity>
No

> <Canonical_Smiles>
CCCCCOc1cc(O)c2c(=O)c(OCCCCC)c(-c3ccc4c(c3)OC(c3ccc(O)c(OC)c3)C(CO)O4)oc2c1

$$$$

  SciTegic03142313312D

 28 31  0  0  0  0            999 V2000
    3.8704    5.2539    0.0000 F   0  0
    3.8787    3.7539    0.0000 C   0  0
    2.5835    2.9972    0.0000 F   0  0
    2.5756    4.4970    0.0000 F   0  0
    5.1821    3.0099    0.0000 O   0  0
    5.1903    1.5091    0.0000 C   0  0
    6.4920    0.7636    0.0000 C   0  0
    6.4972   -0.7364    0.0000 C   0  0
    5.2007   -1.4909    0.0000 C   0  0
    3.8990   -0.7455    0.0000 C   0  0
    2.6003   -1.4977    0.0000 N   0  0
    1.2990   -0.7500    0.0000 C   0  0
    1.2990    0.7500    0.0000 N   0  0
    0.0000    1.5000    0.0000 N   0  0
   -1.2990    0.7500    0.0000 N   0  0
   -1.2990   -0.7500    0.0000 C   0  0
   -2.5981   -1.5000    0.0000 C   0  0
   -2.5981   -3.0000    0.0000 C   0  0
   -1.2990   -3.7500    0.0000 C   0  0
   -1.2990   -5.2508    0.0000 N   0  0
   -2.5969   -6.0029    0.0000 C   0  0
   -2.5945   -7.5029    0.0000 C   0  0
   -1.2942   -8.2509    0.0000 O   0  0
    0.0036   -7.4988    0.0000 C   0  0
    0.0012   -5.9988    0.0000 C   0  0
    0.0000   -3.0000    0.0000 N   0  0
    0.0000   -1.5000    0.0000 C   0  0
    3.8939    0.7546    0.0000 C   0  0
  1  2  1  0
  2  3  1  0
  2  4  1  0
  2  5  1  0
  5  6  1  0
  6  7  2  0
  7  8  1  0
  8  9  2  0
  9 10  1  0
 10 11  1  0
 11 12  1  0
 12 13  2  0
 13 14  1  0
 14 15  2  0
 15 16  1  0
 16 17  2  0
 17 18  1  0
 18 19  2  0
 19 20  1  0
 20 21  1  0
 21 22  1  0
 22 23  1  0
 23 24  1  0
 24 25  1  0
 25 20  1  0
 19 26  1  0
 26 27  2  0
 27 12  1  0
 27 16  1  0
 10 28  2  0
 28  6  1  0
M  END
> <assay_chembl_id>
CHEMBL3767797

> <assay_description>
Antiproliferative activity against human LNCAP cells after 96 hrs by MTT assay

> <document_journal>
Bioorg Med Chem Lett

> <molecule_chembl_id>
CHEMBL3765468

> <standard_value>
30990

> <IC50_uM>
30.99

> <Activity>
No

> <Canonical_Smiles>
FC(F)(F)Oc1cccc(Nc2nnnc3ccc(N4CCOCC4)nc23)c1

$$$$

  SciTegic03142313312D

 29 32  0  0  0  0            999 V2000
    6.4924   -3.7566    0.0000 C   0  0
    5.1945   -3.0045    0.0000 N   0  0
    5.1969   -1.5045    0.0000 C   0  0
    3.8991   -0.7525    0.0000 C   0  0
    2.5987   -1.5004    0.0000 N   0  0
    1.2990   -0.7500    0.0000 C   0  0
    1.2990    0.7500    0.0000 C   0  0
    0.0000    1.5000    0.0000 C   0  0
   -1.2990    0.7500    0.0000 C   0  0
   -2.5981    1.5000    0.0000 N   0  0
   -3.8971    0.7500    0.0000 N   0  0
   -3.8971   -0.7500    0.0000 N   0  0
   -2.5981   -1.5000    0.0000 C   0  0
   -2.6011   -3.0008    0.0000 N   0  0
   -3.9020   -3.7494    0.0000 C   0  0
   -3.9072   -5.2494    0.0000 C   0  0
   -5.2089   -5.9949    0.0000 C   0  0
   -6.5053   -5.2405    0.0000 C   0  0
   -6.5001   -3.7405    0.0000 C   0  0
   -7.7957   -2.9829    0.0000 O   0  0
   -7.7884   -1.4821    0.0000 C   0  0
   -9.0833   -0.7249    0.0000 F   0  0
   -6.4855   -0.7389    0.0000 F   0  0
   -7.7804    0.0179    0.0000 F   0  0
   -5.1985   -2.9950    0.0000 C   0  0
   -1.2990   -0.7500    0.0000 C   0  0
    0.0000   -1.5000    0.0000 N   0  0
    2.5965   -3.0004    0.0000 C   0  0
    3.8943   -3.7525    0.0000 C   0  0
  1  2  1  0
  2  3  1  0
  3  4  1  0
  4  5  1  0
  5  6  1  0
  6  7  2  0
  7  8  1  0
  8  9  2  0
  9 10  1  0
 10 11  2  0
 11 12  1  0
 12 13  2  0
 13 14  1  0
 14 15  1  0
 15 16  2  0
 16 17  1  0
 17 18  2  0
 18 19  1  0
 19 20  1  0
 20 21  1  0
 21 22  1  0
 21 23  1  0
 21 24  1  0
 19 25  2  0
 25 15  1  0
 13 26  1  0
 26  9  1  0
 26 27  2  0
 27  6  1  0
  5 28  1  0
 28 29  1  0
 29  2  1  0
M  END
> <assay_chembl_id>
CHEMBL3767797

> <assay_description>
Antiproliferative activity against human LNCAP cells after 96 hrs by MTT assay

> <document_journal>
Bioorg Med Chem Lett

> <molecule_chembl_id>
CHEMBL3764036

> <standard_value>
20270

> <IC50_uM>
20.27

> <Activity>
No

> <Canonical_Smiles>
CN1CCN(c2ccc3nnnc(Nc4cccc(OC(F)(F)F)c4)c3n2)CC1

$$$$

  SciTegic03142313312D

 26 28  0  0  0  0            999 V2000
    3.8912   -5.2570    0.0000 O   0  0
    3.8933   -3.7570    0.0000 C   0  0
    2.5951   -3.0039    0.0000 C   0  0
    2.5973   -1.5031    0.0000 N   0  0
    1.2990   -0.7500    0.0000 C   0  0
    1.2990    0.7500    0.0000 C   0  0
    0.0000    1.5000    0.0000 C   0  0
   -1.2990    0.7500    0.0000 C   0  0
   -2.5981    1.5000    0.0000 N   0  0
   -3.8971    0.7500    0.0000 N   0  0
   -3.8971   -0.7500    0.0000 N   0  0
   -2.5981   -1.5000    0.0000 C   0  0
   -2.6011   -3.0008    0.0000 N   0  0
   -3.9020   -3.7494    0.0000 C   0  0
   -3.9072   -5.2494    0.0000 C   0  0
   -5.2089   -5.9949    0.0000 C   0  0
   -6.5053   -5.2405    0.0000 C   0  0
   -6.5001   -3.7405    0.0000 C   0  0
   -7.7957   -2.9829    0.0000 O   0  0
   -7.7884   -1.4821    0.0000 C   0  0
   -9.0833   -0.7249    0.0000 F   0  0
   -6.4855   -0.7389    0.0000 F   0  0
   -7.7804    0.0179    0.0000 F   0  0
   -5.1985   -2.9950    0.0000 C   0  0
   -1.2990   -0.7500    0.0000 C   0  0
    0.0000   -1.5000    0.0000 N   0  0
  1  2  1  0
  2  3  1  0
  3  4  1  0
  4  5  1  0
  5  6  2  0
  6  7  1  0
  7  8  2  0
  8  9  1  0
  9 10  2  0
 10 11  1  0
 11 12  2  0
 12 13  1  0
 13 14  1  0
 14 15  2  0
 15 16  1  0
 16 17  2  0
 17 18  1  0
 18 19  1  0
 19 20  1  0
 20 21  1  0
 20 22  1  0
 20 23  1  0
 18 24  2  0
 24 14  1  0
 12 25  1  0
 25  8  1  0
 25 26  2  0
 26  5  1  0
M  END
> <assay_chembl_id>
CHEMBL3767797

> <assay_description>
Antiproliferative activity against human LNCAP cells after 96 hrs by MTT assay

> <document_journal>
Bioorg Med Chem Lett

> <molecule_chembl_id>
CHEMBL3765460

> <standard_value>
42880

> <IC50_uM>
42.88

> <Activity>
No

> <Canonical_Smiles>
OCCNc1ccc2nnnc(Nc3cccc(OC(F)(F)F)c3)c2n1

$$$$

  SciTegic03142313312D

 30 35  0  0  1  0            999 V2000
    2.5981    0.0000    0.0000 C   0  0
    1.2990   -0.7500    0.0000 C   0  0  2  0  0  0
    1.2990    0.7500    0.0000 C   0  0
    0.0000    1.5000    0.0000 C   0  0
   -1.2990    0.7500    0.0000 C   0  0  2  0  0  0
   -2.5973    1.5031    0.0000 O   0  0
   -2.5951    3.0039    0.0000 C   0  0
   -1.2948    3.7516    0.0000 O   0  0
   -3.8933    3.7570    0.0000 C   0  0  1  0  0  0
   -4.0312    5.2378    0.0000 C   0  0
   -5.4984    5.5497    0.0000 C   0  0
   -6.2484    4.2507    0.0000 C   0  0
   -5.2447    3.1359    0.0000 N   0  0
   -1.2990   -0.7500    0.0000 C   0  0
    0.0000   -1.5000    0.0000 C   0  0  2  0  0  0
    0.0000   -3.0000    0.0000 C   0  0
    1.2990   -3.7500    0.0000 C   0  0
    2.5981   -3.0000    0.0000 C   0  0  2  0  0  0
    2.5981   -1.5000    0.0000 C   0  0  2  0  0  0
    3.8971   -0.7500    0.0000 C   0  0
    5.1962   -1.5000    0.0000 C   0  0
    5.1962   -3.0000    0.0000 C   0  0  2  0  0  0
    6.5611   -2.3779    0.0000 C   0  0
    6.3238   -3.9802    0.0000 C   0  0
    7.8146   -4.1267    0.0000 N   0  0
    8.1358   -5.5919    0.0000 N   0  0
    6.8416   -6.3502    0.0000 S   0  0
    5.7224   -5.3544    0.0000 C   0  0
    4.2297   -5.2071    0.0000 C   0  0
    3.8971   -3.7500    0.0000 C   0  0  1  0  0  0
  2  1  1  1
  2  3  1  0
  3  4  1  0
  4  5  1  0
  5  6  1  1
  6  7  1  0
  7  8  2  0
  9  7  1  6
  9 10  1  0
 10 11  1  0
 11 12  1  0
 12 13  1  0
 13  9  1  0
  5 14  1  0
 15 14  1  1
 15  2  1  0
 15 16  1  0
 16 17  1  0
 18 17  1  6
 18 19  1  0
 19  2  1  0
 19 20  1  1
 20 21  1  0
 21 22  1  0
 22 23  1  1
 22 24  1  0
 24 25  1  0
 25 26  2  0
 26 27  1  0
 27 28  1  0
 28 24  2  0
 28 29  1  0
 30 29  1  1
 30 18  1  0
 30 22  1  0
M  END
> <assay_chembl_id>
CHEMBL3772615

> <assay_description>
Antiproliferative activity against human LNCAP cells assessed as reduction in cell viability after 96 hrs by sulforhodamine B assay

> <document_journal>
Eur J Med Chem

> <molecule_chembl_id>
CHEMBL3769913

> <standard_value>
31600

> <IC50_uM>
31.6

> <Activity>
No

> <Canonical_Smiles>
C[C@]12CC[C@H](OC(=O)[C@H]3CCCN3)C[C@@H]1CC[C@@H]1[C@@H]2CC[C@]2(C)c3nnsc3C[C@@H]12

$$$$

  SciTegic03142313312D

 30 35  0  0  1  0            999 V2000
    2.5981    0.0000    0.0000 C   0  0
    1.2990   -0.7500    0.0000 C   0  0  2  0  0  0
    1.2990    0.7500    0.0000 C   0  0
    0.0000    1.5000    0.0000 C   0  0
   -1.2990    0.7500    0.0000 C   0  0  2  0  0  0
   -2.5973    1.5031    0.0000 O   0  0
   -2.5951    3.0039    0.0000 C   0  0
   -1.2948    3.7516    0.0000 O   0  0
   -3.8933    3.7570    0.0000 C   0  0  2  0  0  0
   -4.0312    5.2378    0.0000 C   0  0
   -5.4984    5.5497    0.0000 C   0  0
   -6.2484    4.2507    0.0000 C   0  0
   -5.2447    3.1359    0.0000 N   0  0
   -1.2990   -0.7500    0.0000 C   0  0
    0.0000   -1.5000    0.0000 C   0  0  2  0  0  0
    0.0000   -3.0000    0.0000 C   0  0
    1.2990   -3.7500    0.0000 C   0  0
    2.5981   -3.0000    0.0000 C   0  0  2  0  0  0
    2.5981   -1.5000    0.0000 C   0  0  2  0  0  0
    3.8971   -0.7500    0.0000 C   0  0
    5.1962   -1.5000    0.0000 C   0  0
    5.1962   -3.0000    0.0000 C   0  0  2  0  0  0
    6.5611   -2.3779    0.0000 C   0  0
    6.3238   -3.9802    0.0000 C   0  0
    7.8146   -4.1267    0.0000 N   0  0
    8.1358   -5.5919    0.0000 N   0  0
    6.8416   -6.3502    0.0000 S   0  0
    5.7224   -5.3544    0.0000 C   0  0
    4.2297   -5.2071    0.0000 C   0  0
    3.8971   -3.7500    0.0000 C   0  0  1  0  0  0
  2  1  1  1
  2  3  1  0
  3  4  1  0
  4  5  1  0
  5  6  1  1
  6  7  1  0
  7  8  2  0
  9  7  1  1
  9 10  1  0
 10 11  1  0
 11 12  1  0
 12 13  1  0
 13  9  1  0
  5 14  1  0
 15 14  1  1
 15  2  1  0
 15 16  1  0
 16 17  1  0
 18 17  1  6
 18 19  1  0
 19  2  1  0
 19 20  1  1
 20 21  1  0
 21 22  1  0
 22 23  1  1
 22 24  1  0
 24 25  1  0
 25 26  2  0
 26 27  1  0
 27 28  1  0
 28 24  2  0
 28 29  1  0
 30 29  1  1
 30 18  1  0
 30 22  1  0
M  END
> <assay_chembl_id>
CHEMBL3772615

> <assay_description>
Antiproliferative activity against human LNCAP cells assessed as reduction in cell viability after 96 hrs by sulforhodamine B assay

> <document_journal>
Eur J Med Chem

> <molecule_chembl_id>
CHEMBL3771045

> <standard_value>
36200

> <IC50_uM>
36.2

> <Activity>
No

> <Canonical_Smiles>
C[C@]12CC[C@H](OC(=O)[C@@H]3CCCN3)C[C@@H]1CC[C@@H]1[C@@H]2CC[C@]2(C)c3nnsc3C[C@@H]12

$$$$

  SciTegic03142313312D

 23 27  0  0  1  0            999 V2000
    2.5981    0.0000    0.0000 C   0  0
    1.2990   -0.7500    0.0000 C   0  0  2  0  0  0
    1.2990    0.7500    0.0000 C   0  0
    0.0000    1.5000    0.0000 C   0  0
   -1.2990    0.7500    0.0000 C   0  0  2  0  0  0
   -2.5981    1.5000    0.0000 O   0  0
   -1.2990   -0.7500    0.0000 C   0  0
    0.0000   -1.5000    0.0000 C   0  0  2  0  0  0
    0.0000   -3.0000    0.0000 C   0  0
    1.2990   -3.7500    0.0000 C   0  0
    2.5981   -3.0000    0.0000 C   0  0  2  0  0  0
    2.5981   -1.5000    0.0000 C   0  0  2  0  0  0
    3.8971   -0.7500    0.0000 C   0  0
    5.1962   -1.5000    0.0000 C   0  0
    5.1962   -3.0000    0.0000 C   0  0  2  0  0  0
    6.5611   -2.3779    0.0000 C   0  0
    6.3238   -3.9802    0.0000 C   0  0
    7.8146   -4.1267    0.0000 N   0  0
    8.1358   -5.5919    0.0000 N   0  0
    6.8416   -6.3502    0.0000 S   0  0
    5.7224   -5.3544    0.0000 C   0  0
    4.2297   -5.2071    0.0000 C   0  0
    3.8971   -3.7500    0.0000 C   0  0  1  0  0  0
  2  1  1  1
  2  3  1  0
  3  4  1  0
  4  5  1  0
  5  6  1  1
  5  7  1  0
  8  7  1  1
  8  2  1  0
  8  9  1  0
  9 10  1  0
 11 10  1  6
 11 12  1  0
 12  2  1  0
 12 13  1  1
 13 14  1  0
 14 15  1  0
 15 16  1  1
 15 17  1  0
 17 18  1  0
 18 19  2  0
 19 20  1  0
 20 21  1  0
 21 17  2  0
 21 22  1  0
 23 22  1  1
 23 11  1  0
 23 15  1  0
M  END
> <assay_chembl_id>
CHEMBL3772615

> <assay_description>
Antiproliferative activity against human LNCAP cells assessed as reduction in cell viability after 96 hrs by sulforhodamine B assay

> <document_journal>
Eur J Med Chem

> <molecule_chembl_id>
CHEMBL3770683

> <standard_value>
48100

> <IC50_uM>
48.1

> <Activity>
No

> <Canonical_Smiles>
C[C@]12CC[C@H](O)C[C@@H]1CC[C@@H]1[C@@H]2CC[C@]2(C)c3nnsc3C[C@@H]12

$$$$

  SciTegic03142313312D

 66 68  0  0  1  0            999 V2000
   16.8963    0.7772    0.0000 C   0  0
   16.8989   -0.7228    0.0000 C   0  0  2  0  0  0
   18.2002   -1.4705    0.0000 N   0  0
   19.4989   -0.7183    0.0000 C   0  0
   19.4963    0.7817    0.0000 O   0  0
   20.8002   -1.4660    0.0000 C   0  0  2  0  0  0
   20.9380   -2.9469    0.0000 C   0  0
   22.4053   -3.2587    0.0000 C   0  0  1  0  0  0
   23.0154   -4.6291    0.0000 O   0  0
   23.1553   -1.9597    0.0000 C   0  0
   22.1516   -0.8450    0.0000 N   0  0
   22.4548    0.6222    0.0000 C   0  0
   21.3341    1.6192    0.0000 O   0  0
   23.8793    1.0949    0.0000 C   0  0
   24.1830    2.5647    0.0000 C   0  0
   25.6074    3.0374    0.0000 C   0  0
   25.9112    4.5072    0.0000 C   0  0
   27.3348    4.9797    0.0000 O   0  0
   24.7905    5.5042    0.0000 O   0  0
   15.6002   -1.4751    0.0000 C   0  0
   15.6028   -2.9751    0.0000 O   0  0
   14.2989   -0.7273    0.0000 N   0  0
   13.0002   -1.4796    0.0000 C   0  0  1  0  0  0
   13.0060   -2.9804    0.0000 C   0  0
   14.3074   -3.7263    0.0000 O   0  0
   11.6990   -0.7319    0.0000 C   0  0
   11.6963    0.7681    0.0000 O   0  0
   10.4003   -1.4841    0.0000 N   0  0
    9.0990   -0.7364    0.0000 C   0  0  2  0  0  0
    7.8003   -1.4887    0.0000 C   0  0
    7.8029   -2.9887    0.0000 O   0  0
    6.4990   -0.7409    0.0000 N   0  0
    5.2003   -1.4932    0.0000 C   0  0  1  0  0  0
    5.2060   -2.9940    0.0000 C   0  0
    6.5081   -3.7403    0.0000 C   0  0
    6.5138   -5.2411    0.0000 C   0  0
    5.2174   -5.9957    0.0000 N   0  0
    7.8153   -5.9870    0.0000 O   0  0
    3.8990   -0.7455    0.0000 C   0  0
    3.8964    0.7545    0.0000 O   0  0
    2.6003   -1.4977    0.0000 N   0  0
    1.2990   -0.7500    0.0000 C   0  0
    1.2990    0.7500    0.0000 C   0  0
    0.0000    1.5000    0.0000 C   0  0
   -1.2990    0.7500    0.0000 C   0  0
   -2.6003    1.4977    0.0000 C   0  0
   -3.8990    0.7455    0.0000 O   0  0
   -5.2003    1.4932    0.0000 P   0  0  3  0  0  0
   -5.2029    2.9932    0.0000 N   0  0
   -3.9027    2.2457    0.0000 O   0  0
   -6.4990    0.7409    0.0000 N   0  0
   -7.8003    1.4887    0.0000 C   0  0
   -9.0990    0.7364    0.0000 C   0  0
  -10.3996    1.4837    0.0000 Cl  0  0
   -6.4995   -0.7599    0.0000 C   0  0
   -7.7990   -1.5107    0.0000 C   0  0
   -7.7994   -3.0107    0.0000 Cl  0  0
   -1.2990   -0.7500    0.0000 C   0  0
    0.0000   -1.5000    0.0000 C   0  0
    0.0000   -3.0000    0.0000 F   0  0
    9.0964    0.7643    0.0000 C   0  0
    7.7970    1.5140    0.0000 C   0  0
    7.7965    3.0140    0.0000 C   0  0
    9.0952    3.7645    0.0000 C   0  0
   10.3945    3.0150    0.0000 C   0  0
   10.3951    1.5150    0.0000 C   0  0
  2  1  1  6
  2  3  1  0
  3  4  1  0
  4  5  2  0
  6  4  1  1
  6  7  1  0
  7  8  1  0
  8  9  1  6
  8 10  1  0
 10 11  1  0
 11  6  1  0
 11 12  1  0
 12 13  2  0
 12 14  1  0
 14 15  1  0
 15 16  1  0
 16 17  1  0
 17 18  2  0
 17 19  1  0
  2 20  1  0
 20 21  2  0
 20 22  1  0
 23 22  1  1
 23 24  1  0
 24 25  1  0
 23 26  1  0
 26 27  2  0
 26 28  1  0
 29 28  1  6
 29 30  1  0
 30 31  2  0
 30 32  1  0
 33 32  1  1
 33 34  1  0
 34 35  1  0
 35 36  1  0
 36 37  1  0
 36 38  2  0
 33 39  1  0
 39 40  2  0
 39 41  1  0
 41 42  1  0
 42 43  2  0
 43 44  1  0
 44 45  2  0
 45 46  1  0
 46 47  1  0
 47 48  1  0
 48 49  1  4
 48 50  2  0
 48 51  1  0
 51 52  1  0
 52 53  1  0
 53 54  1  0
 51 55  1  0
 55 56  1  0
 56 57  1  0
 45 58  1  0
 58 59  2  0
 59 42  1  0
 59 60  1  0
 29 61  1  0
 61 62  1  0
 62 63  1  0
 63 64  1  0
 64 65  1  0
 65 66  1  0
 66 61  1  0
M  END
> <assay_chembl_id>
CHEMBL3804637

> <assay_description>
Antiproliferative activity against human LNCAP cells expressing prostate specific antigen after 72 hrs by MTT assay

> <document_journal>
Bioorg Med Chem

> <molecule_chembl_id>
CHEMBL3797786

> <standard_value>
29000

> <IC50_uM>
29

> <Activity>
No

> <Canonical_Smiles>
C[C@H](NC(=O)[C@@H]1C[C@@H](O)CN1C(=O)CCCC(=O)O)C(=O)N[C@@H](CO)C(=O)N[C@H](C(=O)N[C@@H](CCC(N)=O)C(=O)Nc1ccc(COP(N)(=O)N(CCCl)CCCl)cc1F)C1CCCCC1

$$$$

  SciTegic03142313312D

 67 69  0  0  1  0            999 V2000
    7.7751  -15.0212    0.0000 C   0  0
    9.0755  -14.2734    0.0000 C   0  0  2  0  0  0
   10.3737  -15.0265    0.0000 N   0  0
   10.3716  -16.5273    0.0000 C   0  0
    9.0712  -17.2751    0.0000 O   0  0
   11.6698  -17.2804    0.0000 C   0  0  2  0  0  0
   13.0212  -16.6594    0.0000 C   0  0
   14.0249  -17.7741    0.0000 C   0  0  1  0  0  0
   15.5166  -17.6173    0.0000 O   0  0
   13.2748  -19.0731    0.0000 C   0  0
   11.8076  -18.7613    0.0000 N   0  0
   10.6887  -19.7575    0.0000 C   0  0
    9.2649  -19.2855    0.0000 O   0  0
   10.9915  -21.2275    0.0000 C   0  0
    9.8705  -22.2254    0.0000 C   0  0
   10.1733  -23.6954    0.0000 C   0  0
    9.0523  -24.6933    0.0000 C   0  0
    9.3550  -26.1624    0.0000 O   0  0
    7.6285  -24.2213    0.0000 O   0  0
    9.0776  -12.7726    0.0000 C   0  0
   10.3780  -12.0249    0.0000 O   0  0
    7.7794  -12.0195    0.0000 N   0  0
    7.7815  -10.5187    0.0000 C   0  0  1  0  0  0
    9.0841   -9.7732    0.0000 C   0  0
   10.3808  -10.5273    0.0000 O   0  0
    6.4833   -9.7656    0.0000 C   0  0
    5.1830  -10.5134    0.0000 O   0  0
    6.4855   -8.2648    0.0000 N   0  0
    5.1873   -7.5117    0.0000 C   0  0  2  0  0  0
    5.1894   -6.0109    0.0000 C   0  0
    6.4897   -5.2632    0.0000 O   0  0
    3.8912   -5.2578    0.0000 N   0  0
    3.8933   -3.7570    0.0000 C   0  0  1  0  0  0
    5.1959   -3.0115    0.0000 C   0  0
    6.4933   -3.7660    0.0000 C   0  0
    7.7959   -3.0206    0.0000 C   0  0
    7.8011   -1.5206    0.0000 N   0  0
    9.0926   -3.7747    0.0000 O   0  0
    2.5951   -3.0039    0.0000 C   0  0
    1.2948   -3.7516    0.0000 O   0  0
    2.5973   -1.5031    0.0000 N   0  0
    1.2990   -0.7500    0.0000 C   0  0
    1.2990    0.7500    0.0000 C   0  0
    0.0000    1.5000    0.0000 C   0  0
    0.0000    3.0000    0.0000 F   0  0
   -1.2990    0.7500    0.0000 C   0  0
   -2.6003    1.4977    0.0000 C   0  0
   -3.8990    0.7455    0.0000 O   0  0
   -5.2003    1.4932    0.0000 P   0  0  3  0  0  0
   -5.2029    2.9932    0.0000 N   0  0
   -3.9027    2.2457    0.0000 O   0  0
   -6.4990    0.7409    0.0000 N   0  0
   -7.8003    1.4887    0.0000 C   0  0
   -9.0990    0.7364    0.0000 C   0  0
  -10.3996    1.4837    0.0000 Cl  0  0
   -6.4995   -0.7599    0.0000 C   0  0
   -7.7990   -1.5107    0.0000 C   0  0
   -7.7994   -3.0107    0.0000 Cl  0  0
   -1.2990   -0.7500    0.0000 C   0  0
   -2.5981   -1.5000    0.0000 F   0  0
    0.0000   -1.5000    0.0000 C   0  0
    3.8863   -8.2598    0.0000 C   0  0
    2.5874   -7.5094    0.0000 C   0  0
    1.2881   -8.2589    0.0000 C   0  0
    1.2875   -9.7589    0.0000 C   0  0
    2.5863  -10.5094    0.0000 C   0  0
    3.8856   -9.7599    0.0000 C   0  0
  2  1  1  1
  2  3  1  0
  3  4  1  0
  4  5  2  0
  6  4  1  6
  6  7  1  0
  7  8  1  0
  8  9  1  1
  8 10  1  0
 10 11  1  0
 11  6  1  0
 11 12  1  0
 12 13  2  0
 12 14  1  0
 14 15  1  0
 15 16  1  0
 16 17  1  0
 17 18  2  0
 17 19  1  0
  2 20  1  0
 20 21  2  0
 20 22  1  0
 23 22  1  6
 23 24  1  0
 24 25  1  0
 23 26  1  0
 26 27  2  0
 26 28  1  0
 29 28  1  1
 29 30  1  0
 30 31  2  0
 30 32  1  0
 33 32  1  6
 33 34  1  0
 34 35  1  0
 35 36  1  0
 36 37  1  0
 36 38  2  0
 33 39  1  0
 39 40  2  0
 39 41  1  0
 41 42  1  0
 42 43  2  0
 43 44  1  0
 44 45  1  0
 44 46  2  0
 46 47  1  0
 47 48  1  0
 48 49  1  0
 49 50  1  4
 49 51  2  0
 49 52  1  0
 52 53  1  0
 53 54  1  0
 54 55  1  0
 52 56  1  0
 56 57  1  0
 57 58  1  0
 46 59  1  0
 59 60  1  0
 59 61  2  0
 61 42  1  0
 29 62  1  0
 62 63  1  0
 63 64  1  0
 64 65  1  0
 65 66  1  0
 66 67  1  0
 67 62  1  0
M  END
> <assay_chembl_id>
CHEMBL3804637

> <assay_description>
Antiproliferative activity against human LNCAP cells expressing prostate specific antigen after 72 hrs by MTT assay

> <document_journal>
Bioorg Med Chem

> <molecule_chembl_id>
CHEMBL3800423

> <standard_value>
20000

> <IC50_uM>
20

> <Activity>
No

> <Canonical_Smiles>
C[C@H](NC(=O)[C@@H]1C[C@@H](O)CN1C(=O)CCCC(=O)O)C(=O)N[C@@H](CO)C(=O)N[C@H](C(=O)N[C@@H](CCC(N)=O)C(=O)Nc1cc(F)c(COP(N)(=O)N(CCCl)CCCl)c(F)c1)C1CCCCC1

$$$$

  SciTegic03142313312D

 24 27  0  0  0  0            999 V2000
    3.8976   -0.7553    0.0000 O   0  0
    2.5973   -1.5031    0.0000 C   0  0
    2.5951   -3.0039    0.0000 N   0  0
    3.8933   -3.7570    0.0000 C   0  0
    4.0312   -5.2378    0.0000 N   0  0
    5.4984   -5.5497    0.0000 N   0  0
    6.2484   -4.2507    0.0000 C   0  0
    7.7410   -4.0938    0.0000 C   0  0
    8.7075   -5.2343    0.0000 C   0  0
   10.1833   -4.9658    0.0000 C   0  0
   10.6886   -3.5534    0.0000 C   0  0
    9.7181   -2.4097    0.0000 C   0  0
    8.2423   -2.6783    0.0000 C   0  0
    5.2447   -3.1359    0.0000 O   0  0
    1.2990   -0.7500    0.0000 C   0  0
    1.2990    0.7500    0.0000 C   0  0
    0.0000    1.5000    0.0000 C   0  0
   -1.2990    0.7500    0.0000 C   0  0
   -2.5981    1.5000    0.0000 C   0  0
   -3.8971    0.7500    0.0000 C   0  0
   -3.8971   -0.7500    0.0000 C   0  0
   -2.5981   -1.5000    0.0000 C   0  0
   -1.2990   -0.7500    0.0000 C   0  0
    0.0000   -1.5000    0.0000 C   0  0
  1  2  2  0
  2  3  1  0
  3  4  1  0
  4  5  2  0
  5  6  1  0
  6  7  2  0
  7  8  1  0
  8  9  2  0
  9 10  1  0
 10 11  2  0
 11 12  1  0
 12 13  2  0
 13  8  1  0
  7 14  1  0
 14  4  1  0
  2 15  1  0
 15 16  2  0
 16 17  1  0
 17 18  2  0
 18 19  1  0
 19 20  2  0
 20 21  1  0
 21 22  2  0
 22 23  1  0
 23 18  1  0
 23 24  2  0
 24 15  1  0
M  END
> <assay_chembl_id>
CHEMBL3800867

> <assay_description>
Cytotoxicity against human LNCAP cells assessed as growth inhibition after 24 hrs by sulforhodamine B assay

> <document_journal>
Bioorg Med Chem Lett

> <molecule_chembl_id>
CHEMBL3800452

> <standard_value>
32330

> <IC50_uM>
32.33

> <Activity>
No

> <Canonical_Smiles>
O=C(Nc1nnc(-c2ccccc2)o1)c1ccc2ccccc2c1

$$$$

  SciTegic03142313312D

  9  9  0  0  0  0            999 V2000
    2.5981   -1.5000    0.0000 O   0  0
    1.2990   -0.7500    0.0000 C   0  0
    1.2990    0.7500    0.0000 N   0  0
    0.0000    1.5000    0.0000 C   0  0
   -1.2990    0.7500    0.0000 C   0  0
   -2.5981    1.5000    0.0000 F   0  0
   -1.2990   -0.7500    0.0000 C   0  0
   -2.5981   -1.5000    0.0000 O   0  0
    0.0000   -1.5000    0.0000 N   0  0
  1  2  2  0
  2  3  1  0
  3  4  1  0
  4  5  2  0
  5  6  1  0
  5  7  1  0
  7  8  2  0
  7  9  1  0
  9  2  1  0
M  END
> <assay_chembl_id>
CHEMBL3800867

> <assay_description>
Cytotoxicity against human LNCAP cells assessed as growth inhibition after 24 hrs by sulforhodamine B assay

> <document_journal>
Bioorg Med Chem Lett

> <molecule_chembl_id>
CHEMBL185

> <standard_value>
30

> <IC50_uM>
0.03

> <Activity>
Yes

> <Canonical_Smiles>
O=c1[nH]cc(F)c(=O)[nH]1

$$$$

  SciTegic03142313312D

 35 36  0  0  0  0            999 V2000
    5.1937   -3.0093    0.0000 C   0  0
    3.8933   -3.7570    0.0000 C   0  0  3  0  0  0
    3.8962   -2.2570    0.0000 O   0  0
    2.5951   -3.0039    0.0000 C   0  0
    2.5973   -1.5031    0.0000 O   0  0
    1.2990   -0.7500    0.0000 C   0  0
    1.2990    0.7500    0.0000 C   0  0
    0.0000    1.5000    0.0000 C   0  0
    0.0000    3.0008    0.0000 C   0  0
    1.2985    3.7517    0.0000 F   0  0
   -1.2993    3.7504    0.0000 F   0  0
   -0.0007    4.5008    0.0000 F   0  0
   -1.2990    0.7500    0.0000 C   0  0
   -1.2990   -0.7500    0.0000 C   0  0
   -2.5988   -1.5004    0.0000 C   0  0
   -3.8983   -0.7513    0.0000 F   0  0
   -2.5983   -3.0004    0.0000 F   0  0
   -3.8975   -2.2510    0.0000 F   0  0
    0.0000   -1.5000    0.0000 C   0  0
    3.8912   -5.2578    0.0000 C   0  0
    2.5909   -6.0056    0.0000 O   0  0
    5.1894   -6.0109    0.0000 N   0  0
    5.1873   -7.5117    0.0000 C   0  0
    6.4837   -8.2663    0.0000 C   0  0
    6.4785   -9.7663    0.0000 C   0  0
    5.1769  -10.5118    0.0000 C   0  0
    5.1748  -12.0126    0.0000 N   0  3
    6.4723  -12.7653    0.0000 O   0  0
    3.8744  -12.7604    0.0000 O   0  5
    3.8804   -9.7573    0.0000 C   0  0
    2.5781  -10.5032    0.0000 C   0  0
    2.5720  -12.0032    0.0000 F   0  0
    1.2819   -9.7483    0.0000 F   0  0
    1.2761  -11.2481    0.0000 F   0  0
    3.8856   -8.2573    0.0000 C   0  0
  2  1  1  4
  2  3  1  0
  2  4  1  0
  4  5  1  0
  5  6  1  0
  6  7  2  0
  7  8  1  0
  8  9  1  0
  9 10  1  0
  9 11  1  0
  9 12  1  0
  8 13  2  0
 13 14  1  0
 14 15  1  0
 15 16  1  0
 15 17  1  0
 15 18  1  0
 14 19  2  0
 19  6  1  0
  2 20  1  0
 20 21  2  0
 20 22  1  0
 22 23  1  0
 23 24  2  0
 24 25  1  0
 25 26  2  0
 26 27  1  0
 27 28  2  0
 27 29  1  0
 26 30  1  0
 30 31  1  0
 31 32  1  0
 31 33  1  0
 31 34  1  0
 30 35  2  0
 35 23  1  0
M  CHG  2  27   1  29  -1
M  END
> <assay_chembl_id>
CHEMBL3829945

> <assay_description>
Antiproliferative activity against human LNCAP cells assessed as reduction in cell viability after 96 hrs by propidium iodide staining based fluorescence assay

> <document_journal>
Bioorg Med Chem Lett

> <molecule_chembl_id>
CHEMBL3828469

> <standard_value>
990

> <IC50_uM>
0.99

> <Activity>
Yes

> <Canonical_Smiles>
CC(O)(COc1cc(C(F)(F)F)cc(C(F)(F)F)c1)C(=O)Nc1ccc([N+](=O)[O-])c(C(F)(F)F)c1

$$$$

  SciTegic03142313312D

 35 36  0  0  0  0            999 V2000
    5.1937   -3.0093    0.0000 C   0  0
    3.8933   -3.7570    0.0000 C   0  0  3  0  0  0
    3.8962   -2.2570    0.0000 O   0  0
    2.5951   -3.0039    0.0000 C   0  0
    2.5973   -1.5031    0.0000 O   0  0
    1.2990   -0.7500    0.0000 C   0  0
    1.2990    0.7500    0.0000 C   0  0
    0.0000    1.5000    0.0000 C   0  0
    0.0000    3.0008    0.0000 C   0  0
    1.2985    3.7517    0.0000 F   0  0
   -1.2993    3.7504    0.0000 F   0  0
   -0.0007    4.5008    0.0000 F   0  0
   -1.2990    0.7500    0.0000 C   0  0
   -1.2990   -0.7500    0.0000 C   0  0
   -2.5988   -1.5004    0.0000 C   0  0
   -3.8983   -0.7513    0.0000 F   0  0
   -2.5983   -3.0004    0.0000 F   0  0
   -3.8975   -2.2510    0.0000 F   0  0
    0.0000   -1.5000    0.0000 C   0  0
    3.8912   -5.2578    0.0000 C   0  0
    2.5909   -6.0056    0.0000 O   0  0
    5.1894   -6.0109    0.0000 N   0  0
    5.1873   -7.5117    0.0000 C   0  0
    3.8856   -8.2573    0.0000 C   0  0
    3.8804   -9.7573    0.0000 C   0  0
    5.1769  -10.5118    0.0000 C   0  0
    5.1748  -12.0126    0.0000 N   0  3
    6.4723  -12.7653    0.0000 O   0  0
    3.8745  -12.7604    0.0000 O   0  5
    6.4785   -9.7663    0.0000 C   0  0
    6.4837   -8.2663    0.0000 C   0  0
    7.7860   -7.5204    0.0000 C   0  0
    9.0829   -8.2741    0.0000 F   0  0
    7.7908   -6.0204    0.0000 F   0  0
    9.0873   -6.7743    0.0000 F   0  0
  2  1  1  4
  2  3  1  0
  2  4  1  0
  4  5  1  0
  5  6  1  0
  6  7  2  0
  7  8  1  0
  8  9  1  0
  9 10  1  0
  9 11  1  0
  9 12  1  0
  8 13  2  0
 13 14  1  0
 14 15  1  0
 15 16  1  0
 15 17  1  0
 15 18  1  0
 14 19  2  0
 19  6  1  0
  2 20  1  0
 20 21  2  0
 20 22  1  0
 22 23  1  0
 23 24  2  0
 24 25  1  0
 25 26  2  0
 26 27  1  0
 27 28  2  0
 27 29  1  0
 26 30  1  0
 30 31  2  0
 31 23  1  0
 31 32  1  0
 32 33  1  0
 32 34  1  0
 32 35  1  0
M  CHG  2  27   1  29  -1
M  END
> <assay_chembl_id>
CHEMBL3829945

> <assay_description>
Antiproliferative activity against human LNCAP cells assessed as reduction in cell viability after 96 hrs by propidium iodide staining based fluorescence assay

> <document_journal>
Bioorg Med Chem Lett

> <molecule_chembl_id>
CHEMBL3828507

> <standard_value>
23980

> <IC50_uM>
23.98

> <Activity>
No

> <Canonical_Smiles>
CC(O)(COc1cc(C(F)(F)F)cc(C(F)(F)F)c1)C(=O)Nc1ccc([N+](=O)[O-])cc1C(F)(F)F

$$$$

  SciTegic03142313312D

 34 35  0  0  1  0            999 V2000
    5.1937   -3.0093    0.0000 C   0  0
    3.8933   -3.7570    0.0000 C   0  0  2  0  0  0
    2.5930   -4.5047    0.0000 O   0  0
    2.5951   -3.0039    0.0000 C   0  0
    2.5973   -1.5031    0.0000 S   0  0
    1.2990   -0.7500    0.0000 C   0  0
    1.2990    0.7500    0.0000 C   0  0
    0.0000    1.5000    0.0000 C   0  0
    0.0000    3.0008    0.0000 C   0  0
    1.2985    3.7517    0.0000 F   0  0
   -1.2993    3.7504    0.0000 F   0  0
   -0.0007    4.5008    0.0000 F   0  0
   -1.2990    0.7500    0.0000 C   0  0
   -1.2990   -0.7500    0.0000 C   0  0
   -2.5988   -1.5004    0.0000 C   0  0
   -3.8983   -0.7513    0.0000 F   0  0
   -2.5983   -3.0004    0.0000 F   0  0
   -3.8975   -2.2510    0.0000 F   0  0
    0.0000   -1.5000    0.0000 C   0  0
    3.8912   -5.2578    0.0000 C   0  0
    2.5909   -6.0056    0.0000 O   0  0
    5.1894   -6.0109    0.0000 N   0  0
    5.1873   -7.5117    0.0000 C   0  0
    6.4837   -8.2663    0.0000 C   0  0
    6.4785   -9.7663    0.0000 C   0  0
    5.1769  -10.5118    0.0000 C   0  0
    5.1717  -12.0126    0.0000 C   0  0
    5.1665  -13.5126    0.0000 N   0  0
    3.8804   -9.7573    0.0000 C   0  0
    2.5781  -10.5032    0.0000 C   0  0
    2.5720  -12.0032    0.0000 F   0  0
    1.2819   -9.7483    0.0000 F   0  0
    1.2761  -11.2481    0.0000 F   0  0
    3.8856   -8.2573    0.0000 C   0  0
  2  1  1  6
  2  3  1  0
  2  4  1  0
  4  5  1  0
  5  6  1  0
  6  7  2  0
  7  8  1  0
  8  9  1  0
  9 10  1  0
  9 11  1  0
  9 12  1  0
  8 13  2  0
 13 14  1  0
 14 15  1  0
 15 16  1  0
 15 17  1  0
 15 18  1  0
 14 19  2  0
 19  6  1  0
  2 20  1  0
 20 21  2  0
 20 22  1  0
 22 23  1  0
 23 24  2  0
 24 25  1  0
 25 26  2  0
 26 27  1  0
 27 28  3  0
 26 29  1  0
 29 30  1  0
 30 31  1  0
 30 32  1  0
 30 33  1  0
 29 34  2  0
 34 23  1  0
M  END
> <assay_chembl_id>
CHEMBL3829945

> <assay_description>
Antiproliferative activity against human LNCAP cells assessed as reduction in cell viability after 96 hrs by propidium iodide staining based fluorescence assay

> <document_journal>
Bioorg Med Chem Lett

> <molecule_chembl_id>
CHEMBL3827995

> <standard_value>
790

> <IC50_uM>
0.79

> <Activity>
Yes

> <Canonical_Smiles>
C[C@](O)(CSc1cc(C(F)(F)F)cc(C(F)(F)F)c1)C(=O)Nc1ccc(C#N)c(C(F)(F)F)c1

$$$$

  SciTegic03142313312D

 42 48  0  0  1  0            999 V2000
    5.4178   -5.2554    0.0000 O   0  0
    4.7579   -3.9083    0.0000 C   0  0
    5.5953   -2.6629    0.0000 N   0  0
    7.0927   -2.7645    0.0000 C   0  0  3  0  0  0
    6.0118   -3.7793    0.0000 C   0  0
    7.4209   -4.0256    0.0000 C   0  0
    8.3461   -3.1002    0.0000 C   0  0  3  0  0  0
    7.6592   -1.7710    0.0000 C   0  0
    6.1607   -1.7038    0.0000 O   0  0
    8.4663   -0.5066    0.0000 O   0  0
    8.3684   -1.4527    0.0000 C   0  0
    6.9674   -1.1316    0.0000 C   0  0
    9.8383   -3.6497    0.0000 C   0  0
    8.6657   -3.6075    0.0000 C   0  0
    3.2631   -3.8069    0.0000 C   0  0  2  0  0  0
    2.4682   -2.5349    0.0000 N   0  0
    0.9594   -2.8530    0.0000 C   0  0
    0.4464   -1.4435    0.0000 C   0  0
   -1.0308   -1.1830    0.0000 C   0  0
   -1.9950   -2.3321    0.0000 C   0  0
   -1.4819   -3.7416    0.0000 C   0  0
   -0.0047   -4.0021    0.0000 C   0  0
    0.9081   -4.3941    0.0000 C   0  0  2  0  0  0
   -0.5968   -4.7221    0.0000 C   0  0
   -1.6990   -3.7047    0.0000 O   0  0
   -0.7982   -6.2085    0.0000 N   0  0
    0.5533   -6.8594    0.0000 C   0  0
    0.9731   -8.2980    0.0000 C   0  0
    2.4303   -8.6537    0.0000 C   0  0
    2.8509  -10.0935    0.0000 Cl  0  0
    3.4669   -7.5695    0.0000 C   0  0
    3.0464   -6.1297    0.0000 C   0  0
    1.5899   -5.7752    0.0000 C   0  0
    2.2989   -4.9560    0.0000 C   0  0  1  0  0  0
    2.1420   -6.4485    0.0000 C   0  0
    0.7265   -6.9499    0.0000 C   0  0
    0.4579   -8.4257    0.0000 C   0  0
    1.6016   -9.3962    0.0000 C   0  0
    3.0140   -8.8909    0.0000 C   0  0
    4.1577   -9.8614    0.0000 Cl  0  0
    3.2825   -7.4151    0.0000 C   0  0
    4.6947   -6.9094    0.0000 F   0  0
  1  2  2  0
  2  3  1  0
  4  3  1  4
  4  5  1  0
  5  6  1  0
  6  7  1  0
  7  8  1  4
  8  9  2  0
  8 10  1  0
  7 11  1  0
 11 12  1  0
 12  4  1  0
  7 13  1  0
 13 14  1  0
 14  4  1  0
 15  2  1  1
 15 16  1  0
 16 17  1  0
 17 18  1  0
 18 19  1  0
 19 20  1  0
 20 21  1  0
 21 22  1  0
 22 17  1  0
 17 23  1  0
 23 24  1  6
 24 25  2  0
 24 26  1  0
 26 27  1  0
 27 28  2  0
 28 29  1  0
 29 30  1  0
 29 31  2  0
 31 32  1  0
 32 33  2  0
 33 27  1  0
 33 23  1  0
 23 34  1  0
 34 15  1  0
 34 35  1  6
 35 36  2  0
 36 37  1  0
 37 38  2  0
 38 39  1  0
 39 40  1  0
 39 41  2  0
 41 35  1  0
 41 42  1  0
M  END
> <assay_chembl_id>
CHEMBL4011400

> <assay_description>
Cytotoxicity against wild type p53 expressing human LNCAP cells assessed as cell growth inhibition by WST8 assay

> <document_journal>
J Med Chem

> <molecule_chembl_id>
CHEMBL4072857

> <standard_value>
36

> <IC50_uM>
0.036

> <Activity>
Yes

> <Canonical_Smiles>
O=C(NC12CCC(C(=O)O)(CC1)CC2)[C@@H]1NC2(CCCCC2)[C@@]2(C(=O)Nc3cc(Cl)ccc32)[C@H]1c1cccc(Cl)c1F

$$$$

  SciTegic03142313312D

 43 49  0  0  1  0            999 V2000
    0.3135   -6.0339    0.0000 C   0  0
   -0.7563   -4.9825    0.0000 N   0  0
   -2.2357   -5.2300    0.0000 C   0  0  1  0  0  0
   -2.4023   -6.7189    0.0000 C   0  0
   -3.7769   -7.3194    0.0000 O   0  0
   -1.1946   -7.6100    0.0000 N   0  0
   -1.3615   -9.1015    0.0000 C   0  0  3  0  0  0
    0.1185   -9.1910    0.0000 C   0  0
   -0.8078  -10.2811    0.0000 C   0  0
   -2.1108  -10.1608    0.0000 C   0  0  3  0  0  0
   -1.9131   -8.6778    0.0000 C   0  0
   -0.5253   -8.1085    0.0000 O   0  0
   -3.0997   -7.7601    0.0000 O   0  0
   -3.1811   -8.9082    0.0000 C   0  0
   -2.3089   -7.7656    0.0000 C   0  0
   -2.9071  -11.5373    0.0000 C   0  0
   -2.0323  -10.7552    0.0000 C   0  0
   -2.9282   -3.8994    0.0000 C   0  0  2  0  0  0
   -4.4161   -3.7033    0.0000 C   0  0
   -4.8982   -2.2814    0.0000 C   0  0
   -6.3700   -1.9921    0.0000 C   0  0
   -7.3565   -3.1220    0.0000 C   0  0
   -6.8711   -4.5413    0.0000 C   0  0
   -7.8576   -5.6713    0.0000 Cl  0  0
   -5.3993   -4.8307    0.0000 C   0  0
   -4.9136   -6.2499    0.0000 F   0  0
   -1.8877   -2.7643    0.0000 C   0  0  1  0  0  0
   -0.4323   -2.4014    0.0000 C   0  0
    0.7168   -3.3656    0.0000 O   0  0
   -0.3277   -0.9050    0.0000 N   0  0
   -1.7178   -0.3437    0.0000 C   0  0
   -2.2308    1.0659    0.0000 C   0  0
   -3.7080    1.3263    0.0000 C   0  0
   -4.2211    2.7359    0.0000 Cl  0  0
   -4.6722    0.1773    0.0000 C   0  0
   -4.1592   -1.2323    0.0000 C   0  0
   -2.6820   -1.4928    0.0000 C   0  0
   -0.5345   -3.4990    0.0000 C   0  0
    0.4090   -2.2739    0.0000 C   0  0
    1.9038   -2.3981    0.0000 C   0  0
    2.5437   -3.7548    0.0000 C   0  0
    1.6886   -4.9873    0.0000 C   0  0
    0.1938   -4.8630    0.0000 C   0  0
  1  2  1  0
  2  3  1  0
  3  4  1  1
  4  5  2  0
  4  6  1  0
  7  6  1  4
  7  8  1  0
  8  9  1  0
  9 10  1  0
 10 11  1  4
 11 12  2  0
 11 13  1  0
 10 14  1  0
 14 15  1  0
 15  7  1  0
 10 16  1  0
 16 17  1  0
 17  7  1  0
  3 18  1  0
 18 19  1  6
 19 20  2  0
 20 21  1  0
 21 22  2  0
 22 23  1  0
 23 24  1  0
 23 25  2  0
 25 19  1  0
 25 26  1  0
 18 27  1  0
 27 28  1  6
 28 29  2  0
 28 30  1  0
 30 31  1  0
 31 32  2  0
 32 33  1  0
 33 34  1  0
 33 35  2  0
 35 36  1  0
 36 37  2  0
 37 31  1  0
 37 27  1  0
 27 38  1  0
 38  2  1  0
 38 39  1  0
 39 40  1  0
 40 41  1  0
 41 42  1  0
 42 43  1  0
 43 38  1  0
M  END
> <assay_chembl_id>
CHEMBL4011400

> <assay_description>
Cytotoxicity against wild type p53 expressing human LNCAP cells assessed as cell growth inhibition by WST8 assay

> <document_journal>
J Med Chem

> <molecule_chembl_id>
CHEMBL4064867

> <standard_value>
30

> <IC50_uM>
0.03

> <Activity>
Yes

> <Canonical_Smiles>
CN1[C@@H](C(=O)NC23CCC(C(=O)O)(CC2)CC3)[C@H](c2cccc(Cl)c2F)[C@]2(C(=O)Nc3cc(Cl)ccc32)C12CCCCC2

$$$$

  SciTegic03142313312D

 44 50  0  0  1  0            999 V2000
   -0.9050   -7.0962    0.0000 C   0  0
   -0.0535   -5.8613    0.0000 C   0  0
   -0.6956   -4.5076    0.0000 N   0  0
   -2.1751   -4.7551    0.0000 C   0  0  1  0  0  0
   -2.8409   -6.0973    0.0000 C   0  0
   -4.3379   -6.1914    0.0000 O   0  0
   -2.0108   -7.3476    0.0000 N   0  0
   -2.6778   -8.6921    0.0000 C   0  0  3  0  0  0
   -1.3176   -9.2824    0.0000 C   0  0
   -2.5609   -9.9900    0.0000 C   0  0
   -3.7442   -9.4313    0.0000 C   0  0  3  0  0  0
   -3.0512   -8.1053    0.0000 C   0  0
   -1.5524   -8.0451    0.0000 O   0  0
   -3.8523   -6.8372    0.0000 O   0  0
   -4.3215   -7.8882    0.0000 C   0  0
   -3.1111   -7.1128    0.0000 C   0  0
   -4.9632  -10.4524    0.0000 C   0  0
   -3.8737  -10.0167    0.0000 C   0  0
   -2.8676   -3.4245    0.0000 C   0  0  2  0  0  0
   -4.3555   -3.2285    0.0000 C   0  0
   -4.8375   -1.8065    0.0000 C   0  0
   -6.3094   -1.5172    0.0000 C   0  0
   -7.2958   -2.6472    0.0000 C   0  0
   -6.8105   -4.0665    0.0000 C   0  0
   -7.7970   -5.1965    0.0000 Cl  0  0
   -5.3387   -4.3558    0.0000 C   0  0
   -4.8529   -5.7750    0.0000 F   0  0
   -1.8271   -2.2894    0.0000 C   0  0  1  0  0  0
   -0.3717   -1.9265    0.0000 C   0  0
    0.7774   -2.8907    0.0000 O   0  0
   -0.2670   -0.4302    0.0000 N   0  0
   -1.6572    0.1312    0.0000 C   0  0
   -2.1702    1.5407    0.0000 C   0  0
   -3.6474    1.8012    0.0000 C   0  0
   -4.1604    3.2107    0.0000 Cl  0  0
   -4.6116    0.6521    0.0000 C   0  0
   -4.0986   -0.7574    0.0000 C   0  0
   -2.6213   -1.0179    0.0000 C   0  0
   -0.4738   -3.0241    0.0000 C   0  0
    0.4696   -1.7990    0.0000 C   0  0
    1.9645   -1.9232    0.0000 C   0  0
    2.6043   -3.2799    0.0000 C   0  0
    1.7493   -4.5124    0.0000 C   0  0
    0.2544   -4.3881    0.0000 C   0  0
  1  2  1  0
  2  3  1  0
  3  4  1  0
  4  5  1  1
  5  6  2  0
  5  7  1  0
  8  7  1  4
  8  9  1  0
  9 10  1  0
 10 11  1  0
 11 12  1  4
 12 13  2  0
 12 14  1  0
 11 15  1  0
 15 16  1  0
 16  8  1  0
 11 17  1  0
 17 18  1  0
 18  8  1  0
  4 19  1  0
 19 20  1  6
 20 21  2  0
 21 22  1  0
 22 23  2  0
 23 24  1  0
 24 25  1  0
 24 26  2  0
 26 20  1  0
 26 27  1  0
 19 28  1  0
 28 29  1  6
 29 30  2  0
 29 31  1  0
 31 32  1  0
 32 33  2  0
 33 34  1  0
 34 35  1  0
 34 36  2  0
 36 37  1  0
 37 38  2  0
 38 32  1  0
 38 28  1  0
 28 39  1  0
 39  3  1  0
 39 40  1  0
 40 41  1  0
 41 42  1  0
 42 43  1  0
 43 44  1  0
 44 39  1  0
M  END
> <assay_chembl_id>
CHEMBL4011400

> <assay_description>
Cytotoxicity against wild type p53 expressing human LNCAP cells assessed as cell growth inhibition by WST8 assay

> <document_journal>
J Med Chem

> <molecule_chembl_id>
CHEMBL4091801

> <standard_value>
18

> <IC50_uM>
0.018

> <Activity>
Yes

> <Canonical_Smiles>
CCN1[C@@H](C(=O)NC23CCC(C(=O)O)(CC2)CC3)[C@H](c2cccc(Cl)c2F)[C@]2(C(=O)Nc3cc(Cl)ccc32)C12CCCCC2

$$$$

  SciTegic03142313312D

 69 78  0  0  1  0            999 V2000
    0.1475    7.8297    0.0000 C   0  0
    0.7257    6.4456    0.0000 C   0  0
   -0.2000    5.2900    0.0000 C   0  0  2  0  0  0
    1.2504    4.9941    0.0000 N   0  0
    1.7616    3.5830    0.0000 C   0  0
    0.7953    2.4357    0.0000 O   0  0
    3.2391    3.3192    0.0000 C   0  0
    3.7520    1.9096    0.0000 C   0  0
    5.2292    1.6490    0.0000 C   0  0
    6.1935    2.7979    0.0000 C   0  0
    7.6707    2.5373    0.0000 C   0  0
    5.6807    4.2075    0.0000 C   0  0
    6.6450    5.3565    0.0000 C   0  0
    4.2035    4.4682    0.0000 C   0  0
   -0.2000    4.0900    0.0000 C   0  0
   -1.2300    3.5100    0.0000 C   0  0  1  0  0  0
   -2.2500    4.0900    0.0000 C   0  0
   -2.2500    5.2900    0.0000 N   0  0  3  0  0  0
   -3.9200    5.5000    0.0000 C   0  0
   -5.4100    4.7800    0.0000 C   0  0
   -5.7000    3.1300    0.0000 C   0  0
   -4.9700    1.7900    0.0000 C   0  0
   -6.0100    0.6800    0.0000 N   0  0
   -7.4000    1.3200    0.0000 C   0  0
   -8.8100    0.7400    0.0000 C   0  0
  -10.0200    1.6700    0.0000 C   0  0
   -9.8300    3.1800    0.0000 C   0  0
   -8.4200    3.7700    0.0000 C   0  0
   -7.2000    2.8400    0.0000 C   0  0
   -3.3800    1.2800    0.0000 C   0  0  1  0  0  0
   -3.8539   -0.1110    0.0000 C   0  0
   -5.3356   -0.3450    0.0000 O   0  0
   -2.9103   -1.2780    0.0000 O   0  0
   -3.4480   -2.6784    0.0000 C   0  0
   -2.0416    0.6724    0.0000 C   0  0
   -1.9128   -0.7953    0.0000 C   0  0
   -0.5265   -1.4038    0.0000 C   0  0
    0.6017   -0.5644    0.0000 C   0  0
    0.4932    0.9344    0.0000 C   0  0
   -0.8431    1.5433    0.0000 C   0  0
   -0.4674    2.9965    0.0000 O   0  0
    0.4961    3.2643    0.0000 C   0  0
    1.8559   -1.3903    0.0000 N   0  0
    3.2728   -0.8980    0.0000 C   0  0
    1.3973   -2.7757    0.0000 C   0  0  1  0  0  0
    2.1376   -4.0377    0.0000 C   0  0  1  0  0  0
    2.8323   -2.7083    0.0000 O   0  0
    2.8661   -5.3257    0.0000 C   0  0
    2.3367   -6.1740    0.0000 O   0  0
    4.3661   -5.3777    0.0000 O   0  0
    5.0714   -6.7016    0.0000 C   0  0
    1.4121   -5.3747    0.0000 C   0  0  2  0  0  0
    2.1733   -6.6679    0.0000 O   0  0
    1.4350   -7.9746    0.0000 C   0  0
    1.9433   -8.8358    0.0000 C   0  0
   -0.0649   -7.9894    0.0000 O   0  0
   -0.0540   -5.3831    0.0000 C   0  0  2  0  0  0
    0.7049   -6.6774    0.0000 C   0  0
    0.2115   -7.5471    0.0000 C   0  0
   -0.7632   -6.6366    0.0000 C   0  0
   -2.2627   -6.6452    0.0000 C   0  0
   -3.2222   -4.9013    0.0000 C   0  0
   -2.2456   -3.7794    0.0000 N   0  0  3  0  0  0
   -2.4372   -2.3311    0.0000 C   0  0
   -1.0913   -1.6903    0.0000 C   0  0
   -0.0854   -2.7842    0.0000 C   0  0  2  0  0  0
   -0.8111   -4.0878    0.0000 C   0  0  2  0  0  0
   -1.8700    1.9700    0.0000 C   0  0
   -1.2300    5.8900    0.0000 C   0  0
  1  2  1  0
  3  2  1  6
  3  4  1  0
  4  5  1  0
  5  6  2  0
  5  7  1  0
  7  8  2  0
  8  9  1  0
  9 10  2  0
 10 11  1  0
 10 12  1  0
 12 13  1  0
 12 14  2  0
 14  7  1  0
  3 15  1  0
 16 15  1  6
 16 17  1  0
 18 17  1  4
 18 19  1  0
 19 20  1  0
 20 21  1  0
 21 22  2  0
 22 23  1  0
 23 24  1  0
 24 25  2  0
 25 26  1  0
 26 27  2  0
 27 28  1  0
 28 29  2  0
 29 21  1  0
 29 24  1  0
 22 30  1  0
 30 31  1  1
 31 32  2  0
 31 33  1  0
 33 34  1  0
 30 35  1  0
 35 36  2  0
 36 37  1  0
 37 38  2  0
 38 39  1  0
 39 40  2  0
 40 35  1  0
 40 41  1  0
 41 42  1  0
 38 43  1  0
 43 44  1  0
 45 43  1  1
 45 46  1  0
 46 47  1  6
 46 48  1  0
 48 49  2  0
 48 50  1  0
 50 51  1  0
 46 52  1  0
 52 53  1  6
 53 54  1  0
 54 55  1  0
 54 56  2  0
 52 57  1  0
 57 58  1  1
 58 59  1  0
 57 60  1  0
 60 61  2  0
 61 62  1  0
 63 62  1  4
 63 64  1  0
 64 65  1  0
 66 65  1  6
 66 37  1  0
 66 45  1  0
 66 67  1  0
 67 63  1  6
 67 57  1  0
 30 68  1  0
 68 16  1  0
 18 69  1  0
 69  3  1  0
M  END
> <assay_chembl_id>
CHEMBL4019576

> <assay_description>
Antiproliferative activity against human LNCAP cells after 72 hrs by phosphatase assay

> <document_journal>
J Med Chem

> <molecule_chembl_id>
CHEMBL4088308

> <standard_value>
3

> <IC50_uM>
0.003

> <Activity>
Yes

> <Canonical_Smiles>
CC[C@]1(NC(=O)c2ccc(C)c(C)c2)C[C@H]2CN(CCc3c([nH]c4ccccc34)[C@@](C(=O)OC)(c3cc4c(cc3OC)N(C)[C@H]3[C@@](O)(C(=O)OC)[C@H](OC(C)=O)[C@]5(CC)C=CCN6CC[C@]43[C@@H]65)C2)C1

$$$$

  SciTegic03142313312D

 71 81  0  0  1  0            999 V2000
    0.1475    7.8297    0.0000 C   0  0
    0.7257    6.4456    0.0000 C   0  0
   -0.2000    5.2900    0.0000 C   0  0  2  0  0  0
    1.2504    4.9941    0.0000 N   0  0
    1.7616    3.5830    0.0000 C   0  0
    0.7953    2.4357    0.0000 O   0  0
    3.2391    3.3192    0.0000 C   0  0
    3.7520    1.9096    0.0000 C   0  0
    5.2292    1.6490    0.0000 C   0  0
    6.1935    2.7979    0.0000 C   0  0
    5.6807    4.2075    0.0000 C   0  0
    4.2035    4.4682    0.0000 C   0  0
    6.6450    5.3565    0.0000 C   0  0
    8.1221    5.0959    0.0000 C   0  0
    8.6350    3.6863    0.0000 C   0  0
    7.6707    2.5373    0.0000 C   0  0
   -0.2000    4.0900    0.0000 C   0  0
   -1.2300    3.5100    0.0000 C   0  0  1  0  0  0
   -2.2500    4.0900    0.0000 C   0  0
   -2.2500    5.2900    0.0000 N   0  0  3  0  0  0
   -3.9200    5.5000    0.0000 C   0  0
   -5.4100    4.7800    0.0000 C   0  0
   -5.7000    3.1300    0.0000 C   0  0
   -4.9700    1.7900    0.0000 C   0  0
   -6.0100    0.6800    0.0000 N   0  0
   -7.4000    1.3200    0.0000 C   0  0
   -8.8100    0.7400    0.0000 C   0  0
  -10.0200    1.6700    0.0000 C   0  0
   -9.8300    3.1800    0.0000 C   0  0
   -8.4200    3.7700    0.0000 C   0  0
   -7.2000    2.8400    0.0000 C   0  0
   -3.3800    1.2800    0.0000 C   0  0  1  0  0  0
   -3.8539   -0.1110    0.0000 C   0  0
   -5.3356   -0.3450    0.0000 O   0  0
   -2.9103   -1.2780    0.0000 O   0  0
   -3.4480   -2.6784    0.0000 C   0  0
   -2.0416    0.6724    0.0000 C   0  0
   -1.9128   -0.7953    0.0000 C   0  0
   -0.5265   -1.4038    0.0000 C   0  0
    0.6017   -0.5644    0.0000 C   0  0
    0.4932    0.9344    0.0000 C   0  0
   -0.8431    1.5433    0.0000 C   0  0
   -0.4674    2.9965    0.0000 O   0  0
    0.4961    3.2643    0.0000 C   0  0
    1.8559   -1.3903    0.0000 N   0  0
    3.2728   -0.8980    0.0000 C   0  0
    1.3973   -2.7757    0.0000 C   0  0  1  0  0  0
    2.1376   -4.0377    0.0000 C   0  0  1  0  0  0
    2.8323   -2.7083    0.0000 O   0  0
    2.8661   -5.3257    0.0000 C   0  0
    2.3367   -6.1740    0.0000 O   0  0
    4.3661   -5.3777    0.0000 O   0  0
    5.0714   -6.7016    0.0000 C   0  0
    1.4121   -5.3747    0.0000 C   0  0  2  0  0  0
    2.1733   -6.6679    0.0000 O   0  0
    1.4350   -7.9746    0.0000 C   0  0
    1.9433   -8.8358    0.0000 C   0  0
   -0.0649   -7.9894    0.0000 O   0  0
   -0.0540   -5.3831    0.0000 C   0  0  2  0  0  0
    0.7049   -6.6774    0.0000 C   0  0
    0.2115   -7.5471    0.0000 C   0  0
   -0.7632   -6.6366    0.0000 C   0  0
   -2.2627   -6.6452    0.0000 C   0  0
   -3.2222   -4.9013    0.0000 C   0  0
   -2.2456   -3.7794    0.0000 N   0  0  3  0  0  0
   -2.4372   -2.3311    0.0000 C   0  0
   -1.0913   -1.6903    0.0000 C   0  0
   -0.0854   -2.7842    0.0000 C   0  0  2  0  0  0
   -0.8111   -4.0878    0.0000 C   0  0  2  0  0  0
   -1.8700    1.9700    0.0000 C   0  0
   -1.2300    5.8900    0.0000 C   0  0
  1  2  1  0
  3  2  1  6
  3  4  1  0
  4  5  1  0
  5  6  2  0
  5  7  1  0
  7  8  2  0
  8  9  1  0
  9 10  2  0
 10 11  1  0
 11 12  2  0
 12  7  1  0
 11 13  1  0
 13 14  1  0
 14 15  1  0
 15 16  1  0
 16 10  1  0
  3 17  1  0
 18 17  1  6
 18 19  1  0
 20 19  1  4
 20 21  1  0
 21 22  1  0
 22 23  1  0
 23 24  2  0
 24 25  1  0
 25 26  1  0
 26 27  2  0
 27 28  1  0
 28 29  2  0
 29 30  1  0
 30 31  2  0
 31 23  1  0
 31 26  1  0
 24 32  1  0
 32 33  1  1
 33 34  2  0
 33 35  1  0
 35 36  1  0
 32 37  1  0
 37 38  2  0
 38 39  1  0
 39 40  2  0
 40 41  1  0
 41 42  2  0
 42 37  1  0
 42 43  1  0
 43 44  1  0
 40 45  1  0
 45 46  1  0
 47 45  1  1
 47 48  1  0
 48 49  1  6
 48 50  1  0
 50 51  2  0
 50 52  1  0
 52 53  1  0
 48 54  1  0
 54 55  1  6
 55 56  1  0
 56 57  1  0
 56 58  2  0
 54 59  1  0
 59 60  1  1
 60 61  1  0
 59 62  1  0
 62 63  2  0
 63 64  1  0
 65 64  1  4
 65 66  1  0
 66 67  1  0
 68 67  1  6
 68 39  1  0
 68 47  1  0
 68 69  1  0
 69 65  1  6
 69 59  1  0
 32 70  1  0
 70 18  1  0
 20 71  1  0
 71  3  1  0
M  END
> <assay_chembl_id>
CHEMBL4019576

> <assay_description>
Antiproliferative activity against human LNCAP cells after 72 hrs by phosphatase assay

> <document_journal>
J Med Chem

> <molecule_chembl_id>
CHEMBL4091990

> <standard_value>
3.9

> <IC50_uM>
0.0039

> <Activity>
Yes

> <Canonical_Smiles>
CC[C@]1(NC(=O)c2ccc3c(c2)CCCC3)C[C@H]2CN(CCc3c([nH]c4ccccc34)[C@@](C(=O)OC)(c3cc4c(cc3OC)N(C)[C@H]3[C@@](O)(C(=O)OC)[C@H](OC(C)=O)[C@]5(CC)C=CCN6CC[C@]43[C@@H]65)C2)C1

$$$$

  SciTegic03142313312D

 71 81  0  0  1  0            999 V2000
    0.1475    7.8297    0.0000 C   0  0
    0.7257    6.4456    0.0000 C   0  0
   -0.2000    5.2900    0.0000 C   0  0  2  0  0  0
    1.2504    4.9941    0.0000 N   0  0
    1.7616    3.5830    0.0000 C   0  0
    0.7953    2.4357    0.0000 O   0  0
    3.2391    3.3192    0.0000 C   0  0
    3.7520    1.9096    0.0000 C   0  0
    5.2292    1.6490    0.0000 C   0  0
    6.1935    2.7979    0.0000 C   0  0
    5.6807    4.2075    0.0000 C   0  0
    4.2035    4.4682    0.0000 C   0  0
    6.6450    5.3565    0.0000 C   0  0
    8.1221    5.0959    0.0000 C   0  0
    8.6350    3.6863    0.0000 C   0  0
    7.6707    2.5373    0.0000 O   0  0
   -0.2000    4.0900    0.0000 C   0  0
   -1.2300    3.5100    0.0000 C   0  0  1  0  0  0
   -2.2500    4.0900    0.0000 C   0  0
   -2.2500    5.2900    0.0000 N   0  0  3  0  0  0
   -3.9200    5.5000    0.0000 C   0  0
   -5.4100    4.7800    0.0000 C   0  0
   -5.7000    3.1300    0.0000 C   0  0
   -4.9700    1.7900    0.0000 C   0  0
   -6.0100    0.6800    0.0000 N   0  0
   -7.4000    1.3200    0.0000 C   0  0
   -8.8100    0.7400    0.0000 C   0  0
  -10.0200    1.6700    0.0000 C   0  0
   -9.8300    3.1800    0.0000 C   0  0
   -8.4200    3.7700    0.0000 C   0  0
   -7.2000    2.8400    0.0000 C   0  0
   -3.3800    1.2800    0.0000 C   0  0  1  0  0  0
   -3.8539   -0.1110    0.0000 C   0  0
   -5.3356   -0.3450    0.0000 O   0  0
   -2.9103   -1.2780    0.0000 O   0  0
   -3.4480   -2.6784    0.0000 C   0  0
   -2.0416    0.6724    0.0000 C   0  0
   -1.9128   -0.7953    0.0000 C   0  0
   -0.5265   -1.4038    0.0000 C   0  0
    0.6017   -0.5644    0.0000 C   0  0
    0.4932    0.9344    0.0000 C   0  0
   -0.8431    1.5433    0.0000 C   0  0
   -0.4674    2.9965    0.0000 O   0  0
    0.4961    3.2643    0.0000 C   0  0
    1.8559   -1.3903    0.0000 N   0  0
    3.2728   -0.8980    0.0000 C   0  0
    1.3973   -2.7757    0.0000 C   0  0  1  0  0  0
    2.1376   -4.0377    0.0000 C   0  0  1  0  0  0
    2.8323   -2.7083    0.0000 O   0  0
    2.8661   -5.3257    0.0000 C   0  0
    2.3367   -6.1740    0.0000 O   0  0
    4.3661   -5.3777    0.0000 O   0  0
    5.0714   -6.7016    0.0000 C   0  0
    1.4121   -5.3747    0.0000 C   0  0  2  0  0  0
    2.1733   -6.6679    0.0000 O   0  0
    1.4350   -7.9746    0.0000 C   0  0
    1.9433   -8.8358    0.0000 C   0  0
   -0.0649   -7.9894    0.0000 O   0  0
   -0.0540   -5.3831    0.0000 C   0  0  2  0  0  0
    0.7049   -6.6774    0.0000 C   0  0
    0.2115   -7.5471    0.0000 C   0  0
   -0.7632   -6.6366    0.0000 C   0  0
   -2.2627   -6.6452    0.0000 C   0  0
   -3.2222   -4.9013    0.0000 C   0  0
   -2.2456   -3.7794    0.0000 N   0  0  3  0  0  0
   -2.4372   -2.3311    0.0000 C   0  0
   -1.0913   -1.6903    0.0000 C   0  0
   -0.0854   -2.7842    0.0000 C   0  0  2  0  0  0
   -0.8111   -4.0878    0.0000 C   0  0  2  0  0  0
   -1.8700    1.9700    0.0000 C   0  0
   -1.2300    5.8900    0.0000 C   0  0
  1  2  1  0
  3  2  1  6
  3  4  1  0
  4  5  1  0
  5  6  2  0
  5  7  1  0
  7  8  2  0
  8  9  1  0
  9 10  2  0
 10 11  1  0
 11 12  2  0
 12  7  1  0
 11 13  1  0
 13 14  1  0
 14 15  1  0
 15 16  1  0
 16 10  1  0
  3 17  1  0
 18 17  1  6
 18 19  1  0
 20 19  1  4
 20 21  1  0
 21 22  1  0
 22 23  1  0
 23 24  2  0
 24 25  1  0
 25 26  1  0
 26 27  2  0
 27 28  1  0
 28 29  2  0
 29 30  1  0
 30 31  2  0
 31 23  1  0
 31 26  1  0
 24 32  1  0
 32 33  1  1
 33 34  2  0
 33 35  1  0
 35 36  1  0
 32 37  1  0
 37 38  2  0
 38 39  1  0
 39 40  2  0
 40 41  1  0
 41 42  2  0
 42 37  1  0
 42 43  1  0
 43 44  1  0
 40 45  1  0
 45 46  1  0
 47 45  1  1
 47 48  1  0
 48 49  1  6
 48 50  1  0
 50 51  2  0
 50 52  1  0
 52 53  1  0
 48 54  1  0
 54 55  1  6
 55 56  1  0
 56 57  1  0
 56 58  2  0
 54 59  1  0
 59 60  1  1
 60 61  1  0
 59 62  1  0
 62 63  2  0
 63 64  1  0
 65 64  1  4
 65 66  1  0
 66 67  1  0
 68 67  1  6
 68 39  1  0
 68 47  1  0
 68 69  1  0
 69 65  1  6
 69 59  1  0
 32 70  1  0
 70 18  1  0
 20 71  1  0
 71  3  1  0
M  END
> <assay_chembl_id>
CHEMBL4019576

> <assay_description>
Antiproliferative activity against human LNCAP cells after 72 hrs by phosphatase assay

> <document_journal>
J Med Chem

> <molecule_chembl_id>
CHEMBL4069142

> <standard_value>
0.8

> <IC50_uM>
0.0008

> <Activity>
Yes

> <Canonical_Smiles>
CC[C@]1(NC(=O)c2ccc3c(c2)CCCO3)C[C@H]2CN(CCc3c([nH]c4ccccc34)[C@@](C(=O)OC)(c3cc4c(cc3OC)N(C)[C@H]3[C@@](O)(C(=O)OC)[C@H](OC(C)=O)[C@]5(CC)C=CCN6CC[C@]43[C@@H]65)C2)C1

$$$$

  SciTegic03142313312D

 34 38  0  0  1  0            999 V2000
    8.5560   -0.8962    0.0000 C   0  0
    7.4824   -1.9437    0.0000 O   0  0
    6.0373   -1.5383    0.0000 C   0  0
    5.6691   -0.0842    0.0000 C   0  0
    4.2257    0.3239    0.0000 C   0  0
    3.1484   -0.7186    0.0000 C   0  0
    1.6852   -0.3846    0.0000 C   0  0  1  0  0  0
    1.3514    1.0778    0.0000 S   0  0
    0.0000    1.7286    0.0000 S   0  0
   -1.3515    1.0777    0.0000 C   0  0  1  0  0  0
   -2.4593    2.0911    0.0000 C   0  0
   -3.8916    1.6455    0.0000 C   0  0  2  0  0  0
   -3.5614    3.1087    0.0000 O   0  0
   -4.9937    2.6631    0.0000 C   0  0  2  0  0  0
   -4.6635    4.1263    0.0000 Cl  0  0
   -6.4260    2.2175    0.0000 C   0  0
   -6.7562    0.7543    0.0000 C   0  0
   -5.6541   -0.2633    0.0000 C   0  0  1  0  0  0
   -5.9844   -1.7265    0.0000 O   0  0
   -4.2219    0.1823    0.0000 C   0  0  2  0  0  0
   -3.1198   -0.8353    0.0000 O   0  0
   -1.6852   -0.3847    0.0000 N   0  0
   -0.7500   -1.5574    0.0000 C   0  0
   -1.4008   -2.9088    0.0000 O   0  0
    0.7500   -1.5574    0.0000 C   0  0  2  0  0  0
    1.2319    0.0231    0.0000 N   0  0
    2.7053    0.3044    0.0000 C   0  0
    0.2966    1.1959    0.0000 C   0  0
    0.8987    2.5697    0.0000 O   0  0
    3.5188   -2.1762    0.0000 C   0  0
    2.4440   -3.2226    0.0000 O   0  0
    4.9622   -2.5843    0.0000 C   0  0
    5.3336   -4.0384    0.0000 O   0  0
    6.7776   -4.4445    0.0000 C   0  0
  1  2  1  0
  2  3  1  0
  3  4  2  0
  4  5  1  0
  5  6  2  0
  7  6  1  6
  7  8  1  0
  8  9  1  0
 10  9  1  6
 10 11  1  0
 11 12  1  0
 12 13  1  6
 12 14  1  0
 14 15  1  1
 14 16  1  0
 16 17  2  0
 17 18  1  0
 18 19  1  6
 18 20  1  0
 20 12  1  0
 20 21  1  1
 21 22  1  0
 22 10  1  0
 22 23  1  0
 23 24  2  0
 25 23  1  6
 25  7  1  0
 25 26  1  0
 26 27  1  0
 26 28  1  0
 28 10  1  0
 28 29  2  0
  6 30  1  0
 30 31  1  0
 30 32  2  0
 32  3  1  0
 32 33  1  0
 33 34  1  0
M  END
> <assay_chembl_id>
CHEMBL4033844

> <assay_description>
Cytotoxicity against human LNCAP cells after 24 to 72 hrs by MTT assay

> <document_journal>
J Nat Prod

> <molecule_chembl_id>
CHEMBL4073822

> <standard_value>
510

> <IC50_uM>
0.51

> <Activity>
Yes

> <Canonical_Smiles>
COc1ccc([C@H]2SS[C@@]34C[C@]5(O)[C@H](Cl)C=C[C@@H](O)[C@@H]5ON3C(=O)[C@@H]2N(C)C4=O)c(O)c1OC

$$$$

  SciTegic03142313312D

 52 58  0  0  1  0            999 V2000
    5.4593   -7.7917    0.0000 C   0  0
    5.6634   -6.3056    0.0000 C   0  0
    7.0526   -5.7398    0.0000 C   0  0
    4.4785   -5.3846    0.0000 C   0  0
    4.6827   -3.8977    0.0000 C   0  0  2  0  0  0
    6.0719   -3.3319    0.0000 O   0  0
    3.4977   -2.9767    0.0000 C   0  0
    3.6769   -1.5000    0.0000 C   0  0  2  0  0  0
    5.0373   -0.8682    0.0000 C   0  0
    3.6769    0.0000    0.0000 O   0  0
    2.2503    0.4635    0.0000 C   0  0
    1.8129    1.8983    0.0000 O   0  0
    1.2990   -0.7500    0.0000 C   0  0  2  0  0  0
    1.2990    0.7500    0.0000 C   0  0
    0.0000    1.5000    0.0000 C   0  0
   -1.2990    0.7500    0.0000 C   0  0  1  0  0  0
   -1.2990   -0.7500    0.0000 C   0  0
   -2.5981   -1.5000    0.0000 C   0  0
   -3.8971   -0.7500    0.0000 C   0  0
   -3.8971    0.7500    0.0000 C   0  0  1  0  0  0
   -5.1962    1.5000    0.0000 C   0  0
   -5.1608    0.0004    0.0000 C   0  0
   -6.4772    2.2803    0.0000 C   0  0
   -5.1962    3.0000    0.0000 C   0  0  1  0  0  0
   -6.4975    3.7477    0.0000 O   0  0
   -7.7962    2.9955    0.0000 C   0  0  2  0  0  0
   -7.7910    1.4954    0.0000 O   0  0
   -9.0875    0.7409    0.0000 C   0  0
  -10.3891    1.4864    0.0000 C   0  0  1  0  0  0
  -11.6855    0.7319    0.0000 O   0  0
  -10.3943    2.9864    0.0000 C   0  0  2  0  0  0
  -11.6959    3.7319    0.0000 O   0  0
   -9.0978    3.7409    0.0000 C   0  0  1  0  0  0
   -9.1062    5.2417    0.0000 O   0  0
  -10.4096    5.9857    0.0000 C   0  0  2  0  0  0
  -11.7035    5.2267    0.0000 O   0  0
  -13.0077    5.9677    0.0000 C   0  0
  -13.0181    7.4677    0.0000 C   0  0  1  0  0  0
  -14.3223    8.2086    0.0000 O   0  0
  -11.7243    8.2267    0.0000 C   0  0  2  0  0  0
  -11.7348    9.7266    0.0000 O   0  0
  -10.4201    7.4857    0.0000 C   0  0  1  0  0  0
   -9.1263    8.2448    0.0000 O   0  0
   -3.8971    3.7500    0.0000 C   0  0
   -2.5981    3.0000    0.0000 C   0  0
   -2.5981    1.5000    0.0000 C   0  0  2  0  0  0
   -1.2990    2.2500    0.0000 C   0  0
    0.0000   -1.5000    0.0000 C   0  0  1  0  0  0
   -1.2699   -2.2983    0.0000 C   0  0
    0.1089   -2.9435    0.0000 C   0  0
    1.5795   -3.2390    0.0000 C   0  0
    2.2503   -1.9635    0.0000 C   0  0  2  0  0  0
  1  2  1  0
  2  3  1  0
  2  4  1  0
  4  5  1  0
  5  6  1  1
  5  7  1  0
  7  8  1  0
  8  9  1  6
  8 10  1  0
 10 11  1  0
 11 12  2  0
 11 13  1  0
 13 14  1  6
 14 15  1  0
 16 15  1  1
 16 17  1  0
 17 18  2  0
 18 19  1  0
 20 19  1  1
 20 21  1  0
 21 22  1  0
 21 23  1  0
 21 24  1  0
 24 25  1  1
 26 25  1  6
 26 27  1  0
 27 28  1  0
 28 29  1  0
 29 30  1  1
 29 31  1  0
 31 32  1  6
 31 33  1  0
 33 26  1  0
 33 34  1  1
 35 34  1  6
 35 36  1  0
 36 37  1  0
 37 38  1  0
 38 39  1  1
 38 40  1  0
 40 41  1  6
 40 42  1  0
 42 35  1  0
 42 43  1  1
 24 44  1  0
 44 45  1  0
 45 46  1  0
 46 16  1  0
 46 20  1  0
 46 47  1  1
 17 48  1  0
 48 13  1  0
 48 49  1  6
 48 50  1  0
 50 51  1  0
 52 51  1  1
 52 13  1  0
 52  8  1  0
M  END
> <assay_chembl_id>
CHEMBL4035862

> <assay_description>
Cytotoxicity against human LNCAP cells after 72 hrs by SRB assay

> <document_journal>
Bioorg Med Chem Lett

> <molecule_chembl_id>
CHEMBL4092894

> <standard_value>
59310

> <IC50_uM>
59.31

> <Activity>
No

> <Canonical_Smiles>
CC(C)C[C@H](O)C[C@]1(C)OC(=O)[C@]23CC[C@H]4C(=CC[C@H]5C(C)(C)[C@@H](O[C@@H]6OC[C@@H](O)[C@H](O)[C@H]6O[C@@H]6OC[C@@H](O)[C@H](O)[C@H]6O)CC[C@]45C)[C@]2(C)CC[C@@H]31

$$$$

  SciTegic03142313312D

 58 64  0  0  1  0            999 V2000
    0.4417   -7.1830    0.0000 C   0  0
    0.5989   -5.6912    0.0000 C   0  0
   -0.6147   -4.8097    0.0000 C   0  0
    1.9697   -5.0802    0.0000 C   0  0
    2.1269   -3.5877    0.0000 C   0  0
    3.4977   -2.9767    0.0000 C   0  0  3  0  0  0
    4.7113   -3.8582    0.0000 O   0  0
    3.6769   -1.5000    0.0000 C   0  0  2  0  0  0
    5.0373   -0.8682    0.0000 C   0  0
    3.6769    0.0000    0.0000 O   0  0
    2.2503    0.4635    0.0000 C   0  0
    1.8129    1.8983    0.0000 O   0  0
    1.2990   -0.7500    0.0000 C   0  0  2  0  0  0
    1.2990    0.7500    0.0000 C   0  0
    0.0000    1.5000    0.0000 C   0  0
   -1.2990    0.7500    0.0000 C   0  0  1  0  0  0
   -1.2990   -0.7500    0.0000 C   0  0
   -2.5981   -1.5000    0.0000 C   0  0
   -3.8971   -0.7500    0.0000 C   0  0
   -3.8971    0.7500    0.0000 C   0  0  1  0  0  0
   -5.1962    1.5000    0.0000 C   0  0
   -5.1608    0.0004    0.0000 C   0  0
   -6.4772    2.2803    0.0000 C   0  0
   -5.1962    3.0000    0.0000 C   0  0  1  0  0  0
   -6.4975    3.7477    0.0000 O   0  0
   -7.7962    2.9955    0.0000 C   0  0  2  0  0  0
   -7.7910    1.4954    0.0000 O   0  0
   -9.0875    0.7409    0.0000 C   0  0
  -10.3891    1.4864    0.0000 C   0  0  1  0  0  0
  -11.6855    0.7319    0.0000 O   0  0
  -10.3943    2.9864    0.0000 C   0  0  2  0  0  0
  -11.6959    3.7319    0.0000 O   0  0
   -9.0978    3.7409    0.0000 C   0  0  1  0  0  0
   -9.1062    5.2417    0.0000 O   0  0
  -10.4096    5.9857    0.0000 C   0  0  2  0  0  0
  -11.7035    5.2267    0.0000 O   0  0
  -13.0077    5.9677    0.0000 C   0  0  2  0  0  0
  -14.3007    5.2056    0.0000 C   0  0
  -14.2881    3.7057    0.0000 O   0  0
  -13.0181    7.4677    0.0000 C   0  0  1  0  0  0
  -14.3246    8.2063    0.0000 O   0  0
  -15.6180    7.4451    0.0000 S   0  0
  -16.9238    8.1834    0.0000 O   0  0
  -15.6050    5.9451    0.0000 O   0  0
  -16.9104    6.6836    0.0000 O   0  5
  -11.7243    8.2267    0.0000 C   0  0  2  0  0  0
  -11.7348    9.7266    0.0000 O   0  0
  -10.4201    7.4857    0.0000 C   0  0  1  0  0  0
   -9.1263    8.2448    0.0000 O   0  0
   -3.8971    3.7500    0.0000 C   0  0
   -2.5981    3.0000    0.0000 C   0  0
   -2.5981    1.5000    0.0000 C   0  0  2  0  0  0
   -1.2990    2.2500    0.0000 C   0  0
    0.0000   -1.5000    0.0000 C   0  0  1  0  0  0
   -1.2699   -2.2983    0.0000 C   0  0
    0.1089   -2.9435    0.0000 C   0  0
    1.5795   -3.2390    0.0000 C   0  0
    2.2503   -1.9635    0.0000 C   0  0  2  0  0  0
  1  2  2  0
  2  3  1  0
  2  4  1  0
  4  5  1  0
  5  6  1  0
  6  7  1  4
  6  8  1  0
  8  9  1  6
  8 10  1  0
 10 11  1  0
 11 12  2  0
 11 13  1  0
 13 14  1  6
 14 15  1  0
 16 15  1  1
 16 17  1  0
 17 18  2  0
 18 19  1  0
 20 19  1  1
 20 21  1  0
 21 22  1  0
 21 23  1  0
 21 24  1  0
 24 25  1  1
 26 25  1  6
 26 27  1  0
 27 28  1  0
 28 29  1  0
 29 30  1  1
 29 31  1  0
 31 32  1  6
 31 33  1  0
 33 26  1  0
 33 34  1  1
 35 34  1  6
 35 36  1  0
 36 37  1  0
 37 38  1  6
 38 39  1  0
 37 40  1  0
 40 41  1  1
 41 42  1  0
 42 43  2  0
 42 44  2  0
 42 45  1  0
 40 46  1  0
 46 47  1  6
 46 48  1  0
 48 35  1  0
 48 49  1  1
 24 50  1  0
 50 51  1  0
 51 52  1  0
 52 16  1  0
 52 20  1  0
 52 53  1  1
 17 54  1  0
 54 13  1  0
 54 55  1  6
 54 56  1  0
 56 57  1  0
 58 57  1  1
 58  8  1  0
 58 13  1  0
M  CHG  1  45  -1
M  END
> <assay_chembl_id>
CHEMBL4035862

> <assay_description>
Cytotoxicity against human LNCAP cells after 72 hrs by SRB assay

> <document_journal>
Bioorg Med Chem Lett

> <molecule_chembl_id>
CHEMBL4083089

> <standard_value>
51470

> <IC50_uM>
51.47

> <Activity>
No

> <RemovedSalts>
Na+

> <Canonical_Smiles>
C=C(C)CCC(O)[C@]1(C)OC(=O)[C@]23CC[C@H]4C(=CC[C@H]5C(C)(C)[C@@H](O[C@@H]6OC[C@@H](O)[C@H](O)[C@H]6O[C@@H]6O[C@H](CO)[C@@H](OS(=O)(=O)[O-])[C@H](O)[C@H]6O)CC[C@]45C)[C@]2(C)CC[C@H]13.[Na+]

$$$$

  SciTegic03142313312D

 54 60  0  0  1  0            999 V2000
    0.4417   -7.1830    0.0000 C   0  0
    0.5989   -5.6912    0.0000 C   0  0
   -0.6147   -4.8097    0.0000 C   0  0
    1.9697   -5.0802    0.0000 C   0  0
    2.1269   -3.5877    0.0000 C   0  0
    3.4977   -2.9767    0.0000 C   0  0  3  0  0  0
    4.7113   -3.8582    0.0000 O   0  0
    3.6769   -1.5000    0.0000 C   0  0  2  0  0  0
    5.0373   -0.8682    0.0000 C   0  0
    3.6769    0.0000    0.0000 O   0  0
    2.2503    0.4635    0.0000 C   0  0
    1.8129    1.8983    0.0000 O   0  0
    1.2990   -0.7500    0.0000 C   0  0  2  0  0  0
    1.2990    0.7500    0.0000 C   0  0
    0.0000    1.5000    0.0000 C   0  0
   -1.2990    0.7500    0.0000 C   0  0  1  0  0  0
   -1.2990   -0.7500    0.0000 C   0  0
   -2.5981   -1.5000    0.0000 C   0  0
   -3.8971   -0.7500    0.0000 C   0  0
   -3.8971    0.7500    0.0000 C   0  0  1  0  0  0
   -5.1962    1.5000    0.0000 C   0  0
   -5.1608    0.0004    0.0000 C   0  0
   -6.4772    2.2803    0.0000 C   0  0
   -5.1962    3.0000    0.0000 C   0  0  1  0  0  0
   -6.4975    3.7477    0.0000 O   0  0
   -7.7962    2.9955    0.0000 C   0  0  2  0  0  0
   -7.7910    1.4954    0.0000 O   0  0
   -9.0875    0.7409    0.0000 C   0  0
  -10.3891    1.4864    0.0000 C   0  0  1  0  0  0
  -11.6855    0.7319    0.0000 O   0  0
  -10.3943    2.9864    0.0000 C   0  0  2  0  0  0
  -11.6959    3.7319    0.0000 O   0  0
   -9.0978    3.7409    0.0000 C   0  0  1  0  0  0
   -9.1062    5.2417    0.0000 O   0  0
  -10.4096    5.9857    0.0000 C   0  0  2  0  0  0
  -11.7035    5.2267    0.0000 O   0  0
  -13.0077    5.9677    0.0000 C   0  0  2  0  0  0
  -14.3007    5.2056    0.0000 C   0  0
  -14.2881    3.7057    0.0000 O   0  0
  -13.0181    7.4677    0.0000 C   0  0  1  0  0  0
  -14.3223    8.2086    0.0000 O   0  0
  -11.7243    8.2267    0.0000 C   0  0  2  0  0  0
  -11.7348    9.7266    0.0000 O   0  0
  -10.4201    7.4857    0.0000 C   0  0  1  0  0  0
   -9.1263    8.2448    0.0000 O   0  0
   -3.8971    3.7500    0.0000 C   0  0
   -2.5981    3.0000    0.0000 C   0  0
   -2.5981    1.5000    0.0000 C   0  0  2  0  0  0
   -1.2990    2.2500    0.0000 C   0  0
    0.0000   -1.5000    0.0000 C   0  0  1  0  0  0
   -1.2699   -2.2983    0.0000 C   0  0
    0.1089   -2.9435    0.0000 C   0  0
    1.5795   -3.2390    0.0000 C   0  0
    2.2503   -1.9635    0.0000 C   0  0  2  0  0  0
  1  2  2  0
  2  3  1  0
  2  4  1  0
  4  5  1  0
  5  6  1  0
  6  7  1  4
  6  8  1  0
  8  9  1  6
  8 10  1  0
 10 11  1  0
 11 12  2  0
 11 13  1  0
 13 14  1  6
 14 15  1  0
 16 15  1  1
 16 17  1  0
 17 18  2  0
 18 19  1  0
 20 19  1  1
 20 21  1  0
 21 22  1  0
 21 23  1  0
 21 24  1  0
 24 25  1  1
 26 25  1  6
 26 27  1  0
 27 28  1  0
 28 29  1  0
 29 30  1  1
 29 31  1  0
 31 32  1  6
 31 33  1  0
 33 26  1  0
 33 34  1  1
 35 34  1  6
 35 36  1  0
 36 37  1  0
 37 38  1  6
 38 39  1  0
 37 40  1  0
 40 41  1  1
 40 42  1  0
 42 43  1  6
 42 44  1  0
 44 35  1  0
 44 45  1  1
 24 46  1  0
 46 47  1  0
 47 48  1  0
 48 16  1  0
 48 20  1  0
 48 49  1  1
 17 50  1  0
 50 13  1  0
 50 51  1  6
 50 52  1  0
 52 53  1  0
 54 53  1  1
 54  8  1  0
 54 13  1  0
M  END
> <assay_chembl_id>
CHEMBL4035862

> <assay_description>
Cytotoxicity against human LNCAP cells after 72 hrs by SRB assay

> <document_journal>
Bioorg Med Chem Lett

> <molecule_chembl_id>
CHEMBL4062943

> <standard_value>
51560

> <IC50_uM>
51.56

> <Activity>
No

> <Canonical_Smiles>
C=C(C)CCC(O)[C@]1(C)OC(=O)[C@]23CC[C@H]4C(=CC[C@H]5C(C)(C)[C@@H](O[C@@H]6OC[C@@H](O)[C@H](O)[C@H]6O[C@@H]6O[C@H](CO)[C@@H](O)[C@H](O)[C@H]6O)CC[C@]45C)[C@]2(C)CC[C@H]13

$$$$

  SciTegic03142313312D

 57 67  0  0  1  0            999 V2000
    2.7124    1.4287    0.0000 C   0  0
    2.6347   -0.0693    0.0000 C   0  0
    1.2990   -0.7500    0.0000 C   0  0  2  0  0  0
    1.2990    0.7500    0.0000 C   0  0
    0.0000    1.5000    0.0000 C   0  0
   -1.2990    0.7500    0.0000 C   0  0
   -1.2990   -0.7500    0.0000 N   0  0  3  0  0  0
   -2.4133   -1.7530    0.0000 C   0  0
   -1.8032   -3.1233    0.0000 C   0  0
   -0.3114   -2.9665    0.0000 C   0  0  1  0  0  0
    0.9815   -3.8184    0.0000 C   0  0
    2.3518   -3.2082    0.0000 C   0  0
    3.5678   -4.0879    0.0000 C   0  0
    3.4137   -5.5799    0.0000 O   0  0
    4.9380   -3.4755    0.0000 O   0  0
    6.1534   -4.3546    0.0000 C   0  0
    2.5085   -1.7165    0.0000 C   0  0
    0.5645   -5.2549    0.0000 N   0  0
   -0.9339   -5.3235    0.0000 C   0  0
   -1.8845   -6.4824    0.0000 C   0  0
   -3.3644   -6.2380    0.0000 C   0  0
   -3.8927   -4.8341    0.0000 C   0  0
   -2.9411   -3.6747    0.0000 C   0  0
   -1.4622   -3.9196    0.0000 C   0  0
   -5.3904   -4.9025    0.0000 C   0  0  2  0  0  0
   -5.7881   -6.3488    0.0000 C   0  0  2  0  0  0
   -4.5355   -7.1740    0.0000 O   0  0
   -7.2383   -6.7278    0.0000 C   0  0  1  0  0  0
   -7.5033   -7.6920    0.0000 O   0  0
   -8.2920   -5.6602    0.0000 C   0  0  1  0  0  0
   -8.7644   -7.0829    0.0000 C   0  0
   -8.0999   -7.8301    0.0000 C   0  0
   -9.8317   -5.8219    0.0000 C   0  0
  -10.7680   -4.6500    0.0000 C   0  0
  -12.2514   -4.8781    0.0000 C   0  0
  -13.1898   -3.7078    0.0000 O   0  0
  -12.7965   -6.2764    0.0000 O   0  0
  -14.2790   -6.5044    0.0000 C   0  0
  -10.2213   -3.2532    0.0000 C   0  0
  -10.9336   -1.9379    0.0000 N   0  0
   -9.9153   -0.8365    0.0000 C   0  0
   -8.5531   -1.4646    0.0000 C   0  0
   -7.3285   -0.6001    0.0000 C   0  0
   -7.4656    0.8936    0.0000 C   0  0
   -6.2405    1.7592    0.0000 O   0  0
   -8.8277    1.5217    0.0000 C   0  0
   -8.9680    3.0160    0.0000 O   0  0
  -10.3311    3.6421    0.0000 C   0  0
  -10.0528    0.6561    0.0000 C   0  0
  -11.4146    1.2869    0.0000 O   0  0
  -11.5502    2.7807    0.0000 C   0  0
   -8.7027   -2.9513    0.0000 C   0  0  1  0  0  0
   -7.7510   -1.7918    0.0000 C   0  0
   -6.3542   -2.3386    0.0000 C   0  0
   -6.4428   -3.8352    0.0000 N   0  0  3  0  0  0
   -7.8942   -4.2139    0.0000 C   0  0  1  0  0  0
    0.0000   -1.5000    0.0000 C   0  0  2  0  0  0
  1  2  1  0
  3  2  1  6
  3  4  1  0
  4  5  2  0
  5  6  1  0
  7  6  1  4
  7  8  1  0
  8  9  1  0
 10  9  1  1
 10 11  1  0
 11 12  2  0
 12 13  1  0
 13 14  2  0
 13 15  1  0
 15 16  1  0
 12 17  1  0
 17  3  1  0
 11 18  1  0
 18 19  1  0
 19 20  2  0
 20 21  1  0
 21 22  2  0
 22 23  1  0
 23 24  2  0
 24 19  1  0
 24 10  1  0
 25 22  1  6
 25 26  1  0
 26 27  1  6
 27 21  1  0
 26 28  1  0
 28 29  1  1
 28 30  1  0
 30 31  1  6
 31 32  1  0
 30 33  1  0
 33 34  1  0
 34 35  1  0
 35 36  2  0
 35 37  1  0
 37 38  1  0
 34 39  2  0
 39 40  1  0
 40 41  1  0
 41 42  2  0
 42 43  1  0
 43 44  2  0
 44 45  1  0
 44 46  1  0
 46 47  1  0
 47 48  1  0
 46 49  2  0
 49 41  1  0
 49 50  1  0
 50 51  1  0
 42 52  1  0
 52 39  1  0
 52 53  1  1
 53 54  1  0
 55 54  1  4
 55 25  1  0
 56 55  1  1
 56 30  1  0
 56 52  1  0
 10 57  1  0
 57  7  1  1
 57  3  1  0
M  END
> <assay_chembl_id>
CHEMBL4042132

> <assay_description>
Cytotoxicity against human LNCAP cells assessed as reduction in cell viability after 72 hrs by MTT assay

> <document_journal>
J Nat Prod

> <molecule_chembl_id>
CHEMBL220132

> <standard_value>
900

> <IC50_uM>
0.9

> <Activity>
Yes

> <Canonical_Smiles>
CC[C@]12C=CCN3CC[C@]4(C(=C(C(=O)OC)C1)Nc1cc5c(cc14)[C@@H]1[C@H](O5)[C@@H](O)[C@@]4(CC)CC(C(=O)OC)=C5Nc6c(cc(O)c(OC)c6OC)[C@@]56CCN1[C@@H]46)[C@@H]32

$$$$

  SciTegic03142313312D

 58 69  0  0  1  0            999 V2000
    2.7124    1.4288    0.0000 C   0  0
    2.6346   -0.0692    0.0000 C   0  0
    1.2990   -0.7500    0.0000 C   0  0  1  0  0  0
    1.2990    0.7500    0.0000 C   0  0
    0.0000    1.5000    0.0000 C   0  0
    0.0031    3.0008    0.0000 C   0  0
   -1.2947    3.7531    0.0000 O   0  0
    1.3039    3.7494    0.0000 O   0  0
    1.3070    5.2494    0.0000 C   0  0
   -1.2990    0.7500    0.0000 C   0  0
   -2.7272    1.1906    0.0000 N   0  0
   -3.6011   -0.0286    0.0000 C   0  0
   -2.7117   -1.2364    0.0000 C   0  0
   -3.3121   -2.6098    0.0000 C   0  0
   -4.8028   -2.7762    0.0000 C   0  0
   -5.4041   -4.1504    0.0000 O   0  0
   -5.6922   -1.5683    0.0000 C   0  0
   -7.1841   -1.7317    0.0000 O   0  0
   -8.0719   -0.5226    0.0000 C   0  0
   -5.0909   -0.1941    0.0000 C   0  0
   -5.9828    1.0130    0.0000 O   0  0
   -7.4734    0.8451    0.0000 C   0  0
   -1.2990   -0.7500    0.0000 C   0  0  1  0  0  0
   -2.4133   -1.7584    0.0000 C   0  0
   -1.8029   -3.1286    0.0000 C   0  0
   -0.3111   -2.9715    0.0000 N   0  0  3  0  0  0
    0.9833   -3.8195    0.0000 C   0  0  2  0  0  0
    1.1407   -5.3106    0.0000 C   0  0
    0.1382   -6.4249    0.0000 C   0  0
    0.6030   -7.8511    0.0000 C   0  0
    2.0705   -8.1617    0.0000 C   0  0
    3.0732   -7.0461    0.0000 C   0  0
    2.6081   -5.6211    0.0000 C   0  0
    3.3570   -4.3215    0.0000 O   0  0
    2.3531   -3.2082    0.0000 C   0  0  2  0  0  0
    2.5086   -1.7163    0.0000 C   0  0  1  0  0  0
    3.8923   -1.1371    0.0000 O   0  0
    2.2287   -9.6525    0.0000 N   0  0
    0.8589  -10.2638    0.0000 C   0  0
    2.2283   -9.3740    0.0000 C   0  0
    3.5506  -10.0854    0.0000 C   0  0
    3.5961  -11.5847    0.0000 O   0  0
    4.8273   -9.2963    0.0000 O   0  0
    6.1487  -10.0062    0.0000 C   0  0
    2.3004   -7.8758    0.0000 C   0  0
    1.0390   -7.0642    0.0000 C   0  0  2  0  0  0
    2.5210   -7.0682    0.0000 C   0  0
    3.0516   -5.6652    0.0000 C   0  0
    1.8813   -4.7270    0.0000 O   0  0
    0.6099   -5.4943    0.0000 C   0  0  1  0  0  0
   -0.7698   -4.9058    0.0000 C   0  0
   -1.9693   -5.8065    0.0000 C   0  0
   -1.9673   -7.4522    0.0000 N   0  0  3  0  0  0
   -2.6120   -8.8065    0.0000 C   0  0
   -1.5232   -9.8382    0.0000 C   0  0
   -0.1457   -9.1500    0.0000 C   0  0  2  0  0  0
   -0.4800   -7.6468    0.0000 C   0  0  2  0  0  0
    0.0000   -1.5000    0.0000 C   0  0  1  0  0  0
  1  2  1  0
  3  2  1  1
  3  4  1  0
  4  5  1  0
  5  6  1  0
  6  7  2  0
  6  8  1  0
  8  9  1  0
  5 10  2  0
 10 11  1  0
 11 12  1  0
 12 13  2  0
 13 14  1  0
 14 15  2  0
 15 16  1  0
 15 17  1  0
 17 18  1  0
 18 19  1  0
 17 20  2  0
 20 12  1  0
 20 21  1  0
 21 22  1  0
 13 23  1  0
 23 10  1  0
 23 24  1  6
 24 25  1  0
 26 25  1  4
 27 26  1  1
 27 28  1  0
 28 29  2  0
 29 30  1  0
 30 31  2  0
 31 32  1  0
 32 33  2  0
 33 28  1  0
 33 34  1  0
 35 34  1  1
 35 27  1  0
 35 36  1  0
 36  3  1  0
 36 37  1  6
 31 38  1  0
 38 39  1  0
 39 40  2  0
 40 41  1  0
 41 42  2  0
 41 43  1  0
 43 44  1  0
 40 45  1  0
 46 45  1  1
 46 47  1  0
 47 48  1  0
 48 49  1  0
 50 49  1  6
 50 46  1  0
 50 51  1  0
 51 52  1  0
 53 52  1  4
 53 54  1  0
 54 55  1  0
 56 55  1  6
 56 39  1  0
 56 30  1  0
 56 57  1  0
 57 53  1  1
 57 46  1  0
 58 26  1  6
 58  3  1  0
 58 23  1  0
M  END
> <assay_chembl_id>
CHEMBL4042132

> <assay_description>
Cytotoxicity against human LNCAP cells assessed as reduction in cell viability after 72 hrs by MTT assay

> <document_journal>
J Nat Prod

> <molecule_chembl_id>
CHEMBL4087281

> <standard_value>
300

> <IC50_uM>
0.3

> <Activity>
Yes

> <Canonical_Smiles>
CC[C@@]12CC(C(=O)OC)=C3Nc4c(cc(O)c(OC)c4OC)[C@@]34CCN([C@@H]3c5cc6c(cc5O[C@@H]3[C@H]1O)NC1=C(C(=O)OC)C[C@]35CCO[C@H]3CCN3CC[C@@]16[C@@H]35)[C@@H]24

$$$$

  SciTegic03142313312D

 21 22  0  0  0  0            999 V2000
    3.8964    0.7545    0.0000 C   0  0
    3.8990   -0.7455    0.0000 S   0  0
    5.1996   -1.4928    0.0000 O   0  0
    5.1966    0.0070    0.0000 O   0  0
    2.6003   -1.4977    0.0000 N   0  0
    1.2990   -0.7500    0.0000 C   0  0
    1.2990    0.7500    0.0000 C   0  0
    0.0000    1.5000    0.0000 C   0  0
   -1.2990    0.7500    0.0000 C   0  0
   -2.6003    1.4977    0.0000 N   0  3
   -3.8983    0.7459    0.0000 O   0  0
   -2.6030    2.9977    0.0000 O   0  5
   -1.2990   -0.7500    0.0000 C   0  0
    0.0000   -1.5000    0.0000 C   0  0
   -0.0031   -3.0008    0.0000 O   0  0
   -1.3039   -3.7494    0.0000 C   0  0
   -1.3092   -5.2494    0.0000 C   0  0
   -2.6108   -5.9949    0.0000 C   0  0
   -3.9072   -5.2404    0.0000 C   0  0
   -3.9020   -3.7404    0.0000 C   0  0
   -2.6004   -2.9949    0.0000 C   0  0
  1  2  1  0
  2  3  2  0
  2  4  2  0
  2  5  1  0
  5  6  1  0
  6  7  2  0
  7  8  1  0
  8  9  2  0
  9 10  1  0
 10 11  2  0
 10 12  1  0
  9 13  1  0
 13 14  2  0
 14  6  1  0
 14 15  1  0
 15 16  1  0
 16 17  2  0
 17 18  1  0
 18 19  2  0
 19 20  1  0
 20 21  2  0
 21 16  1  0
M  CHG  2  10   1  12  -1
M  END
> <assay_chembl_id>
CHEMBL4044375

> <assay_description>
Antiproliferative activity against human LNCAP cells after 48 hrs by MTT assay

> <document_journal>
Bioorg Med Chem

> <molecule_chembl_id>
CHEMBL56367

> <standard_value>
26690

> <IC50_uM>
26.69

> <Activity>
No

> <Canonical_Smiles>
CS(=O)(=O)Nc1ccc([N+](=O)[O-])cc1Oc1ccccc1

$$$$

  SciTegic03142313312D

 39 43  0  0  0  0            999 V2000
    9.0939   -3.7535    0.0000 C   0  0
    7.7945   -3.0041    0.0000 C   0  0
    6.4946   -3.7543    0.0000 O   0  0
    5.1945   -3.0045    0.0000 C   0  0
    5.1969   -1.5045    0.0000 C   0  0
    3.8991   -0.7525    0.0000 C   0  0
    2.5987   -1.5004    0.0000 C   0  0
    1.2990   -0.7500    0.0000 C   0  0  3  0  0  0
    1.2990    0.7500    0.0000 O   0  0
    0.0000    1.5000    0.0000 C   0  0
    0.0000    3.0000    0.0000 C   0  0
   -1.2991    3.7500    0.0000 C   0  0
   -1.2991    5.2507    0.0000 C   0  0
   -2.5993    5.9988    0.0000 O   0  0
   -2.6017    7.4988    0.0000 C   0  0
   -3.9019    8.2467    0.0000 C   0  0
   -3.9043    9.7467    0.0000 C   0  0
   -5.2045   10.4947    0.0000 O   0  0
   -2.6065   10.4988    0.0000 C   0  0
   -1.3062    9.7509    0.0000 C   0  0
   -0.0092   10.5060    0.0000 O   0  0
   -0.0137   12.0068    0.0000 C   0  0
    1.2826   12.7616    0.0000 C   0  0
   -1.3039    8.2509    0.0000 C   0  0
   -0.0036    7.5029    0.0000 C   0  0
    1.2942    8.2550    0.0000 O   0  0
   -0.0012    6.0029    0.0000 C   0  0
    1.2990    5.2550    0.0000 O   0  0
   -2.5981    3.0000    0.0000 C   0  0
   -2.5981    1.5000    0.0000 C   0  0
   -1.2990    0.7500    0.0000 C   0  0
   -1.2990   -0.7500    0.0000 O   0  0
    0.0000   -1.5000    0.0000 C   0  0  3  0  0  0
   -0.0031   -3.0008    0.0000 C   0  0
   -1.3032   -3.7490    0.0000 O   0  0
    2.5965   -3.0004    0.0000 C   0  0
    3.8943   -3.7525    0.0000 C   0  0
    3.8888   -5.2533    0.0000 O   0  0
    2.5875   -5.9994    0.0000 C   0  0
  1  2  1  0
  2  3  1  0
  3  4  1  0
  4  5  2  0
  5  6  1  0
  6  7  2  0
  8  7  1  4
  8  9  1  0
  9 10  1  0
 10 11  2  0
 11 12  1  0
 12 13  1  0
 13 14  1  0
 14 15  1  0
 15 16  2  0
 16 17  1  0
 17 18  1  0
 17 19  2  0
 19 20  1  0
 20 21  1  0
 21 22  1  0
 22 23  1  0
 20 24  2  0
 24 15  1  0
 24 25  1  0
 25 26  2  0
 25 27  1  0
 27 13  2  0
 27 28  1  0
 12 29  2  0
 29 30  1  0
 30 31  2  0
 31 10  1  0
 31 32  1  0
 32 33  1  0
 33  8  1  0
 33 34  1  4
 34 35  1  0
  7 36  1  0
 36 37  2  0
 37  4  1  0
 37 38  1  0
 38 39  1  0
M  END
> <assay_chembl_id>
CHEMBL4044745

> <assay_description>
Antiproliferative activity against human LNCAP cells after 3 days by WST-1 assay

> <document_journal>
Bioorg Med Chem

> <molecule_chembl_id>
CHEMBL4091557

> <standard_value>
33630

> <IC50_uM>
33.63

> <Activity>
No

> <Canonical_Smiles>
CCOc1ccc(C2Oc3cc(-c4oc5cc(O)cc(OCC)c5c(=O)c4O)ccc3OC2CO)cc1OC

$$$$

  SciTegic03142313312D

 25 27  0  0  0  0            999 V2000
    6.4966    0.7465    0.0000 C   0  0
    6.4963   -0.7535    0.0000 O   0  0
    5.1969   -1.5045    0.0000 C   0  0
    3.8991   -0.7525    0.0000 C   0  0
    2.5987   -1.5004    0.0000 C   0  0
    1.2990   -0.7500    0.0000 C   0  0
    1.2990    0.7500    0.0000 O   0  0
    0.0000    1.5000    0.0000 C   0  0
    0.0000    3.0000    0.0000 C   0  0
   -1.2991    3.7500    0.0000 C   0  0
   -2.5981    3.0000    0.0000 C   0  0
   -2.5981    1.5000    0.0000 C   0  0
   -1.2990    0.7500    0.0000 C   0  0
   -1.2990   -0.7500    0.0000 C   0  0
   -2.5981   -1.5000    0.0000 O   0  0
    0.0000   -1.5000    0.0000 C   0  0
    0.0031   -3.0008    0.0000 O   0  0
    1.3032   -3.7490    0.0000 C   0  0
    2.5965   -3.0004    0.0000 C   0  0
    3.8943   -3.7525    0.0000 C   0  0
    3.8888   -5.2533    0.0000 O   0  0
    2.5875   -5.9994    0.0000 C   0  0
    5.1945   -3.0045    0.0000 C   0  0
    6.4946   -3.7543    0.0000 O   0  0
    7.7938   -3.0046    0.0000 C   0  0
  1  2  1  0
  2  3  1  0
  3  4  2  0
  4  5  1  0
  5  6  1  0
  6  7  1  0
  7  8  1  0
  8  9  2  0
  9 10  1  0
 10 11  2  0
 11 12  1  0
 12 13  2  0
 13  8  1  0
 13 14  1  0
 14 15  2  0
 14 16  1  0
 16  6  2  0
 16 17  1  0
 17 18  1  0
  5 19  2  0
 19 20  1  0
 20 21  1  0
 21 22  1  0
 20 23  2  0
 23  3  1  0
 23 24  1  0
 24 25  1  0
M  END
> <assay_chembl_id>
CHEMBL4044852

> <assay_description>
Antiproliferative activity against human LNCAP cells after 3 days by WST-1 assay

> <document_journal>
Bioorg Med Chem

> <molecule_chembl_id>
CHEMBL2047489

> <standard_value>
24700

> <IC50_uM>
24.7

> <Activity>
No

> <Canonical_Smiles>
COc1cc(-c2oc3ccccc3c(=O)c2OC)cc(OC)c1OC

$$$$

  SciTegic03142313312D

 32 34  0  0  0  0            999 V2000
    6.4848   -8.2644    0.0000 C   0  0
    5.1873   -7.5117    0.0000 C   0  0
    5.1894   -6.0109    0.0000 N   0  0
    6.4889   -5.2601    0.0000 C   0  0
    6.4894   -3.7601    0.0000 C   0  0
    3.8912   -5.2578    0.0000 C   0  0
    3.8933   -3.7570    0.0000 C   0  0
    2.5951   -3.0039    0.0000 C   0  0
    2.5973   -1.5031    0.0000 O   0  0
    1.2990   -0.7500    0.0000 C   0  0
    1.2990    0.7500    0.0000 C   0  0
    2.5987    1.5004    0.0000 C   0  0
    3.8991    0.7525    0.0000 C   0  0
    5.1969    1.5046    0.0000 C   0  0
    6.4963    0.7536    0.0000 O   0  0
    6.4966   -0.7464    0.0000 C   0  0
    5.1945    3.0046    0.0000 C   0  0
    6.4915    3.7597    0.0000 O   0  0
    6.4870    5.2597    0.0000 C   0  0
    3.8943    3.7525    0.0000 C   0  0
    3.8888    5.2533    0.0000 O   0  0
    2.5875    5.9994    0.0000 C   0  0
    2.5964    3.0004    0.0000 C   0  0
    0.0000    1.5000    0.0000 O   0  0
   -1.2990    0.7500    0.0000 C   0  0
   -2.5981    1.5000    0.0000 C   0  0
   -3.8971    0.7500    0.0000 C   0  0
   -3.8971   -0.7500    0.0000 C   0  0
   -2.5981   -1.5000    0.0000 C   0  0
   -1.2990   -0.7500    0.0000 C   0  0
    0.0000   -1.5000    0.0000 C   0  0
    0.0000   -3.0000    0.0000 O   0  0
  1  2  1  0
  2  3  1  0
  3  4  1  0
  4  5  1  0
  3  6  1  0
  6  7  1  0
  7  8  1  0
  8  9  1  0
  9 10  1  0
 10 11  2  0
 11 12  1  0
 12 13  2  0
 13 14  1  0
 14 15  1  0
 15 16  1  0
 14 17  2  0
 17 18  1  0
 18 19  1  0
 17 20  1  0
 20 21  1  0
 21 22  1  0
 20 23  2  0
 23 12  1  0
 11 24  1  0
 24 25  1  0
 25 26  2  0
 26 27  1  0
 27 28  2  0
 28 29  1  0
 29 30  2  0
 30 25  1  0
 30 31  1  0
 31 10  1  0
 31 32  2  0
M  END
> <assay_chembl_id>
CHEMBL4044852

> <assay_description>
Antiproliferative activity against human LNCAP cells after 3 days by WST-1 assay

> <document_journal>
Bioorg Med Chem

> <molecule_chembl_id>
CHEMBL4092738

> <standard_value>
37600

> <IC50_uM>
37.6

> <Activity>
No

> <Canonical_Smiles>
CCN(CC)CCCOc1c(-c2cc(OC)c(OC)c(OC)c2)oc2ccccc2c1=O

$$$$

  SciTegic03142313312D

 21 23  0  0  0  0            999 V2000
    2.5981   -1.5000    0.0000 O   0  0
    1.2990   -0.7500    0.0000 C   0  0
    1.2990    0.7500    0.0000 C   0  0
    2.5981    1.5000    0.0000 O   0  0
    0.0000    1.5000    0.0000 C   0  0
    0.0000    3.0008    0.0000 C   0  0
    1.2978    3.7529    0.0000 C   0  0
    1.2954    5.2529    0.0000 C   0  0
   -0.0048    6.0009    0.0000 C   0  0
   -0.0072    7.5009    0.0000 O   0  0
   -1.3026    5.2488    0.0000 C   0  0
   -2.6029    5.9967    0.0000 O   0  0
   -1.3002    3.7488    0.0000 C   0  0
   -1.2990    0.7500    0.0000 O   0  0
   -1.2990   -0.7500    0.0000 C   0  0
   -2.5981   -1.5000    0.0000 C   0  0
   -2.5981   -3.0000    0.0000 C   0  0
   -3.8971   -3.7500    0.0000 O   0  0
   -1.2990   -3.7500    0.0000 C   0  0
    0.0000   -3.0000    0.0000 C   0  0
    0.0000   -1.5000    0.0000 C   0  0
  1  2  2  0
  2  3  1  0
  3  4  1  0
  3  5  2  0
  5  6  1  0
  6  7  2  0
  7  8  1  0
  8  9  2  0
  9 10  1  0
  9 11  1  0
 11 12  1  0
 11 13  2  0
 13  6  1  0
  5 14  1  0
 14 15  1  0
 15 16  2  0
 16 17  1  0
 17 18  1  0
 17 19  2  0
 19 20  1  0
 20 21  2  0
 21  2  1  0
 21 15  1  0
M  END
> <assay_chembl_id>
CHEMBL4044852

> <assay_description>
Antiproliferative activity against human LNCAP cells after 3 days by WST-1 assay

> <document_journal>
Bioorg Med Chem

> <molecule_chembl_id>
CHEMBL31574

> <standard_value>
34100

> <IC50_uM>
34.1

> <Activity>
No

> <Canonical_Smiles>
O=c1c(O)c(-c2ccc(O)c(O)c2)oc2cc(O)ccc12

$$$$

  SciTegic03142313312D

 76 77  0  0  1  0            999 V2000
   -1.7270   12.5065    0.0000 C   0  0
   -2.5934   12.0070    0.0000 C   0  0
   -3.8917   12.7582    0.0000 O   0  0
   -2.5938   10.5062    0.0000 N   0  0
   -1.2948    9.7545    0.0000 C   0  0  1  0  0  0
    0.0039   10.5068    0.0000 C   0  0
    0.0027   12.0076    0.0000 C   0  0
    1.3007   12.7595    0.0000 C   0  0
   -0.8639   12.5067    0.0000 C   0  0
   -1.2953    8.2537    0.0000 C   0  0
   -2.1616    7.7543    0.0000 O   0  0
    0.0038    7.5021    0.0000 N   0  0
    0.0033    6.0012    0.0000 C   0  0  1  0  0  0
   -1.2985    5.2543    0.0000 C   0  0
   -2.5967    6.0074    0.0000 C   0  0
   -3.8977    5.2609    0.0000 C   0  0
   -2.5943    7.0074    0.0000 C   0  0
    1.3023    5.2496    0.0000 C   0  0
    2.1687    5.7491    0.0000 O   0  0
    1.3019    3.7488    0.0000 N   0  0
    2.6009    2.9971    0.0000 C   0  0  1  0  0  0
    3.8996    3.7494    0.0000 C   0  0
    3.8984    5.2502    0.0000 C   0  0
    5.1964    6.0021    0.0000 C   0  0
    3.0318    5.7493    0.0000 C   0  0
    2.6005    1.4963    0.0000 C   0  0
    1.7341    0.9969    0.0000 O   0  0
    3.8995    0.7447    0.0000 N   0  0
    3.8990   -0.7562    0.0000 C   0  0  1  0  0  0
    2.5973   -1.5031    0.0000 C   0  0
    1.2990   -0.7500    0.0000 C   0  0
    1.2990    0.7500    0.0000 C   0  0
    0.0000    1.5000    0.0000 C   0  0
   -1.2990    0.7500    0.0000 C   0  0
   -1.2990   -0.7500    0.0000 C   0  0
    0.0000   -1.5000    0.0000 C   0  0
    5.1972   -1.5092    0.0000 C   0  0
    5.1937   -3.0092    0.0000 O   0  0
    6.4990   -0.7623    0.0000 N   0  0
    7.7972   -1.5154    0.0000 C   0  0  1  0  0  0
    7.7906   -3.0162    0.0000 C   0  0
    6.4880   -3.7617    0.0000 C   0  0
    6.4813   -5.2625    0.0000 C   0  0
    5.1787   -6.0080    0.0000 N   0  0
    5.1721   -7.5088    0.0000 C   0  0
    3.8702   -8.2539    0.0000 N   0  0
    6.4680   -8.2641    0.0000 N   0  0
    9.0990   -0.7685    0.0000 C   0  0
    9.1025    0.7315    0.0000 O   0  0
   10.3972   -1.5216    0.0000 N   0  0
   11.6989   -0.7747    0.0000 C   0  0  2  0  0  0
   12.9971   -1.5277    0.0000 C   0  0
   12.9936   -3.0277    0.0000 O   0  0
   14.2989   -0.7808    0.0000 N   0  0
   15.5971   -1.5339    0.0000 C   0  0  1  0  0  0
   15.5905   -3.0347    0.0000 C   0  0
   14.2879   -3.7802    0.0000 C   0  0
   14.2812   -5.2810    0.0000 C   0  0
   12.9786   -6.0265    0.0000 C   0  0
   12.9720   -7.5265    0.0000 N   0  0
   16.8989   -0.7870    0.0000 C   0  0
   16.9024    0.7130    0.0000 O   0  0
   18.1971   -1.5401    0.0000 N   0  0
   19.4989   -0.7931    0.0000 C   0  0
   20.7971   -1.5462    0.0000 C   0  0
   22.0992   -0.8016    0.0000 C   0  0
   23.3952   -1.5569    0.0000 C   0  0
   23.3891   -3.0569    0.0000 C   0  0
   24.6842   -3.8153    0.0000 C   0  0
   24.6759   -5.3153    0.0000 N   0  0
   25.9876   -3.0729    0.0000 N   0  0
   22.0870   -3.8016    0.0000 C   0  0
   20.7910   -3.0463    0.0000 C   0  0
   11.7056    0.7262    0.0000 C   0  0
   13.0075    1.4712    0.0000 C   0  0
   10.4096    1.4815    0.0000 C   0  0
  1  2  1  0
  2  3  2  0
  2  4  1  0
  5  4  1  1
  5  6  1  0
  6  7  1  0
  7  8  1  0
  7  9  1  0
  5 10  1  0
 10 11  2  0
 10 12  1  0
 13 12  1  6
 13 14  1  0
 14 15  1  0
 15 16  1  0
 15 17  1  0
 13 18  1  0
 18 19  2  0
 18 20  1  0
 21 20  1  1
 21 22  1  0
 22 23  1  0
 23 24  1  0
 23 25  1  0
 21 26  1  0
 26 27  2  0
 26 28  1  0
 29 28  1  6
 29 30  1  0
 30 31  1  0
 31 32  2  0
 32 33  1  0
 33 34  2  0
 34 35  1  0
 35 36  2  0
 36 31  1  0
 29 37  1  0
 37 38  2  0
 37 39  1  0
 40 39  1  6
 40 41  1  0
 41 42  1  0
 42 43  1  0
 43 44  1  0
 44 45  1  0
 45 46  2  0
 45 47  1  0
 40 48  1  0
 48 49  2  0
 48 50  1  0
 51 50  1  1
 51 52  1  0
 52 53  2  0
 52 54  1  0
 55 54  1  6
 55 56  1  0
 56 57  1  0
 57 58  1  0
 58 59  1  0
 59 60  1  0
 55 61  1  0
 61 62  2  0
 61 63  1  0
 63 64  1  0
 64 65  1  0
 65 66  2  0
 66 67  1  0
 67 68  2  0
 68 69  1  0
 69 70  2  0
 69 71  1  0
 68 72  1  0
 72 73  2  0
 73 65  1  0
 51 74  1  0
 74 75  1  0
 74 76  1  0
M  END
> <assay_chembl_id>
CHEMBL4050601

> <assay_description>
Antiproliferative activity against human LNCAP cells assessed as reduction in metabolic activity after 72 hrs by MTT assay

> <document_journal>
J Med Chem

> <molecule_chembl_id>
CHEMBL4077533

> <standard_value>
50000

> <IC50_uM>
50

> <Activity>
No

> <Canonical_Smiles>
CC(=O)N[C@@H](CC(C)C)C(=O)N[C@@H](CC(C)C)C(=O)N[C@@H](CC(C)C)C(=O)N[C@@H](Cc1ccccc1)C(=O)N[C@@H](CCCNC(=N)N)C(=O)N[C@H](C(=O)N[C@@H](CCCCN)C(=O)NCc1ccc(C(=N)N)cc1)C(C)C

$$$$

  SciTegic03142313312D

 73 73  0  0  1  0            999 V2000
   14.2755  -14.2905    0.0000 C   0  0
   12.9737  -15.0356    0.0000 C   0  0
   11.6763  -14.2810    0.0000 C   0  0  2  0  0  0
   11.6815  -12.7811    0.0000 C   0  0
   10.3737  -15.0265    0.0000 C   0  0  2  0  0  0
   10.3716  -16.5273    0.0000 N   0  0
   11.6698  -17.2804    0.0000 C   0  0
   12.9701  -16.5327    0.0000 O   0  0
   11.6676  -18.7813    0.0000 C   0  0  2  0  0  0
   10.3681  -19.5321    0.0000 C   0  0
   10.3676  -21.0329    0.0000 C   0  0
    9.0688  -21.7833    0.0000 C   0  0
   11.2337  -21.5329    0.0000 C   0  0
   12.9658  -19.5343    0.0000 N   0  0
   12.9637  -21.0352    0.0000 C   0  0
   12.0968  -21.5337    0.0000 O   0  0
   14.2619  -21.7882    0.0000 C   0  0  2  0  0  0
   15.5645  -21.0428    0.0000 C   0  0
   16.8619  -21.7973    0.0000 C   0  0
   18.1638  -21.0522    0.0000 C   0  0
   16.8584  -22.7973    0.0000 C   0  0
   14.2598  -23.2891    0.0000 N   0  0
   15.5580  -24.0422    0.0000 C   0  0
   16.4249  -23.5437    0.0000 O   0  0
   15.5558  -25.5430    0.0000 C   0  0  2  0  0  0
   14.2563  -26.2938    0.0000 C   0  0
   14.2558  -27.7946    0.0000 C   0  0
   12.9570  -28.5450    0.0000 C   0  0
   15.1219  -28.2946    0.0000 C   0  0
   16.8540  -26.2961    0.0000 N   0  0
   16.8519  -27.7969    0.0000 C   0  0
   15.9850  -28.2954    0.0000 C   0  0
   18.1494  -28.5495    0.0000 O   0  0
    9.0755  -14.2734    0.0000 C   0  0
    7.7751  -15.0212    0.0000 O   0  0
    9.0776  -12.7726    0.0000 N   0  0
    7.7794  -12.0195    0.0000 C   0  0  1  0  0  0
    6.4799  -12.7704    0.0000 C   0  0
    6.4794  -14.2712    0.0000 C   0  0
    5.1799  -15.0220    0.0000 C   0  0
    5.1794  -16.5228    0.0000 N   0  0
    3.8799  -17.2737    0.0000 C   0  0
    3.8794  -18.7737    0.0000 N   0  0
    2.5809  -16.5237    0.0000 N   0  0
    7.7815  -10.5187    0.0000 C   0  0
    9.0819   -9.7710    0.0000 O   0  0
    6.4833   -9.7656    0.0000 N   0  0
    6.4855   -8.2648    0.0000 C   0  0  2  0  0  0
    5.1873   -7.5117    0.0000 C   0  0
    3.8869   -8.2595    0.0000 O   0  0
    5.1894   -6.0109    0.0000 N   0  0
    3.8912   -5.2578    0.0000 C   0  0  1  0  0  0
    2.5917   -6.0086    0.0000 C   0  0
    2.5912   -7.5095    0.0000 C   0  0
    1.2917   -8.2603    0.0000 C   0  0
    1.2912   -9.7611    0.0000 C   0  0
   -0.0076  -10.5115    0.0000 N   0  0
    3.8933   -3.7570    0.0000 C   0  0
    5.1937   -3.0093    0.0000 O   0  0
    2.5951   -3.0039    0.0000 N   0  0
    2.5973   -1.5031    0.0000 C   0  0
    1.2990   -0.7500    0.0000 C   0  0
    1.2990    0.7500    0.0000 C   0  0
    0.0000    1.5000    0.0000 C   0  0
   -1.2990    0.7500    0.0000 C   0  0
   -2.6003    1.4977    0.0000 C   0  0
   -3.8983    0.7459    0.0000 N   0  0
   -2.6030    2.9977    0.0000 N   0  0
   -1.2990   -0.7500    0.0000 C   0  0
    0.0000   -1.5000    0.0000 C   0  0
    7.7850   -7.5140    0.0000 C   0  0
    7.7855   -6.0140    0.0000 C   0  0
    9.0840   -8.2640    0.0000 C   0  0
  1  2  1  0
  2  3  1  0
  3  4  1  1
  3  5  1  0
  5  6  1  6
  6  7  1  0
  7  8  2  0
  7  9  1  0
  9 10  1  1
 10 11  1  0
 11 12  1  0
 11 13  1  0
  9 14  1  0
 14 15  1  0
 15 16  2  0
 15 17  1  0
 17 18  1  6
 18 19  1  0
 19 20  1  0
 19 21  1  0
 17 22  1  0
 22 23  1  0
 23 24  2  0
 23 25  1  0
 25 26  1  1
 26 27  1  0
 27 28  1  0
 27 29  1  0
 25 30  1  0
 30 31  1  0
 31 32  1  0
 31 33  2  0
  5 34  1  0
 34 35  2  0
 34 36  1  0
 37 36  1  1
 37 38  1  0
 38 39  1  0
 39 40  1  0
 40 41  1  0
 41 42  1  0
 42 43  2  0
 42 44  1  0
 37 45  1  0
 45 46  2  0
 45 47  1  0
 48 47  1  6
 48 49  1  0
 49 50  2  0
 49 51  1  0
 52 51  1  1
 52 53  1  0
 53 54  1  0
 54 55  1  0
 55 56  1  0
 56 57  1  0
 52 58  1  0
 58 59  2  0
 58 60  1  0
 60 61  1  0
 61 62  1  0
 62 63  2  0
 63 64  1  0
 64 65  2  0
 65 66  1  0
 66 67  2  0
 66 68  1  0
 65 69  1  0
 69 70  2  0
 70 62  1  0
 48 71  1  0
 71 72  1  0
 71 73  1  0
M  END
> <assay_chembl_id>
CHEMBL4050601

> <assay_description>
Antiproliferative activity against human LNCAP cells assessed as reduction in metabolic activity after 72 hrs by MTT assay

> <document_journal>
J Med Chem

> <molecule_chembl_id>
CHEMBL4075606

> <standard_value>
28000

> <IC50_uM>
28

> <Activity>
No

> <Canonical_Smiles>
CC[C@H](C)[C@H](NC(=O)[C@H](CC(C)C)NC(=O)[C@H](CC(C)C)NC(=O)[C@H](CC(C)C)NC(C)=O)C(=O)N[C@@H](CCCNC(=N)N)C(=O)N[C@H](C(=O)N[C@@H](CCCCN)C(=O)NCc1ccc(C(=N)N)cc1)C(C)C

$$$$

  SciTegic03142313312D

 74 74  0  0  1  0            999 V2000
   15.9850  -28.2954    0.0000 C   0  0
   16.8519  -27.7969    0.0000 C   0  0
   18.1494  -28.5495    0.0000 O   0  0
   16.8540  -26.2961    0.0000 N   0  0
   15.5558  -25.5430    0.0000 C   0  0  1  0  0  0
   14.2563  -26.2938    0.0000 C   0  0
   14.2558  -27.7946    0.0000 C   0  0
   12.9570  -28.5450    0.0000 C   0  0
   15.1219  -28.2946    0.0000 C   0  0
   15.5580  -24.0422    0.0000 C   0  0
   16.4249  -23.5437    0.0000 O   0  0
   14.2598  -23.2891    0.0000 N   0  0
   14.2619  -21.7882    0.0000 C   0  0  1  0  0  0
   15.5645  -21.0428    0.0000 C   0  0
   16.8619  -21.7973    0.0000 C   0  0
   18.1638  -21.0522    0.0000 C   0  0
   16.8584  -22.7973    0.0000 C   0  0
   12.9637  -21.0352    0.0000 C   0  0
   12.0968  -21.5337    0.0000 O   0  0
   12.9658  -19.5343    0.0000 N   0  0
   11.6676  -18.7813    0.0000 C   0  0  1  0  0  0
   10.3681  -19.5321    0.0000 C   0  0
   10.3676  -21.0329    0.0000 C   0  0
    9.0688  -21.7833    0.0000 C   0  0
   11.2337  -21.5329    0.0000 C   0  0
   11.6698  -17.2804    0.0000 C   0  0
   12.9701  -16.5327    0.0000 O   0  0
   10.3716  -16.5273    0.0000 N   0  0
   10.3737  -15.0265    0.0000 C   0  0  1  0  0  0
   11.6763  -14.2810    0.0000 C   0  0
   12.9737  -15.0356    0.0000 C   0  0
   14.2763  -14.2901    0.0000 C   0  0
   14.2815  -12.7901    0.0000 N   0  0
   15.5729  -15.0442    0.0000 O   0  0
    9.0755  -14.2734    0.0000 C   0  0
    7.7751  -15.0212    0.0000 O   0  0
    9.0776  -12.7726    0.0000 N   0  0
    7.7794  -12.0195    0.0000 C   0  0  1  0  0  0
    6.4799  -12.7704    0.0000 C   0  0
    6.4794  -14.2712    0.0000 C   0  0
    5.1799  -15.0220    0.0000 C   0  0
    5.1794  -16.5228    0.0000 N   0  0
    3.8799  -17.2737    0.0000 C   0  0
    3.8794  -18.7737    0.0000 N   0  0
    2.5809  -16.5237    0.0000 N   0  0
    7.7815  -10.5187    0.0000 C   0  0
    9.0819   -9.7710    0.0000 O   0  0
    6.4833   -9.7656    0.0000 N   0  0
    6.4855   -8.2648    0.0000 C   0  0  2  0  0  0
    5.1873   -7.5117    0.0000 C   0  0
    3.8869   -8.2595    0.0000 O   0  0
    5.1894   -6.0109    0.0000 N   0  0
    3.8912   -5.2578    0.0000 C   0  0  1  0  0  0
    2.5917   -6.0086    0.0000 C   0  0
    2.5912   -7.5095    0.0000 C   0  0
    1.2917   -8.2603    0.0000 C   0  0
    1.2912   -9.7611    0.0000 C   0  0
   -0.0076  -10.5115    0.0000 N   0  0
    3.8933   -3.7570    0.0000 C   0  0
    5.1937   -3.0093    0.0000 O   0  0
    2.5951   -3.0039    0.0000 N   0  0
    2.5973   -1.5031    0.0000 C   0  0
    1.2990   -0.7500    0.0000 C   0  0
    1.2990    0.7500    0.0000 C   0  0
    0.0000    1.5000    0.0000 C   0  0
   -1.2990    0.7500    0.0000 C   0  0
   -2.6003    1.4977    0.0000 C   0  0
   -3.8983    0.7459    0.0000 N   0  0
   -2.6030    2.9977    0.0000 N   0  0
   -1.2990   -0.7500    0.0000 C   0  0
    0.0000   -1.5000    0.0000 C   0  0
    7.7850   -7.5140    0.0000 C   0  0
    7.7855   -6.0140    0.0000 C   0  0
    9.0840   -8.2640    0.0000 C   0  0
  1  2  1  0
  2  3  2  0
  2  4  1  0
  5  4  1  1
  5  6  1  0
  6  7  1  0
  7  8  1  0
  7  9  1  0
  5 10  1  0
 10 11  2  0
 10 12  1  0
 13 12  1  6
 13 14  1  0
 14 15  1  0
 15 16  1  0
 15 17  1  0
 13 18  1  0
 18 19  2  0
 18 20  1  0
 21 20  1  1
 21 22  1  0
 22 23  1  0
 23 24  1  0
 23 25  1  0
 21 26  1  0
 26 27  2  0
 26 28  1  0
 29 28  1  6
 29 30  1  0
 30 31  1  0
 31 32  1  0
 32 33  1  0
 32 34  2  0
 29 35  1  0
 35 36  2  0
 35 37  1  0
 38 37  1  1
 38 39  1  0
 39 40  1  0
 40 41  1  0
 41 42  1  0
 42 43  1  0
 43 44  2  0
 43 45  1  0
 38 46  1  0
 46 47  2  0
 46 48  1  0
 49 48  1  6
 49 50  1  0
 50 51  2  0
 50 52  1  0
 53 52  1  1
 53 54  1  0
 54 55  1  0
 55 56  1  0
 56 57  1  0
 57 58  1  0
 53 59  1  0
 59 60  2  0
 59 61  1  0
 61 62  1  0
 62 63  1  0
 63 64  2  0
 64 65  1  0
 65 66  2  0
 66 67  1  0
 67 68  2  0
 67 69  1  0
 66 70  1  0
 70 71  2  0
 71 63  1  0
 49 72  1  0
 72 73  1  0
 72 74  1  0
M  END
> <assay_chembl_id>
CHEMBL4050601

> <assay_description>
Antiproliferative activity against human LNCAP cells assessed as reduction in metabolic activity after 72 hrs by MTT assay

> <document_journal>
J Med Chem

> <molecule_chembl_id>
CHEMBL4061737

> <standard_value>
26000

> <IC50_uM>
26

> <Activity>
No

> <Canonical_Smiles>
CC(=O)N[C@@H](CC(C)C)C(=O)N[C@@H](CC(C)C)C(=O)N[C@@H](CC(C)C)C(=O)N[C@@H](CCC(N)=O)C(=O)N[C@@H](CCCNC(=N)N)C(=O)N[C@H](C(=O)N[C@@H](CCCCN)C(=O)NCc1ccc(C(=N)N)cc1)C(C)C

$$$$

  SciTegic03142313312D

 72 72  0  0  1  0            999 V2000
   15.9850  -28.2954    0.0000 C   0  0
   16.8519  -27.7969    0.0000 C   0  0
   18.1494  -28.5495    0.0000 O   0  0
   16.8540  -26.2961    0.0000 N   0  0
   15.5558  -25.5430    0.0000 C   0  0  1  0  0  0
   14.2563  -26.2938    0.0000 C   0  0
   14.2558  -27.7946    0.0000 C   0  0
   12.9570  -28.5450    0.0000 C   0  0
   15.1219  -28.2946    0.0000 C   0  0
   15.5580  -24.0422    0.0000 C   0  0
   16.4249  -23.5437    0.0000 O   0  0
   14.2598  -23.2891    0.0000 N   0  0
   14.2619  -21.7882    0.0000 C   0  0  1  0  0  0
   15.5645  -21.0428    0.0000 C   0  0
   16.8619  -21.7973    0.0000 C   0  0
   18.1638  -21.0522    0.0000 C   0  0
   16.8584  -22.7973    0.0000 C   0  0
   12.9637  -21.0352    0.0000 C   0  0
   12.0968  -21.5337    0.0000 O   0  0
   12.9658  -19.5343    0.0000 N   0  0
   11.6676  -18.7813    0.0000 C   0  0  1  0  0  0
   10.3681  -19.5321    0.0000 C   0  0
   10.3676  -21.0329    0.0000 C   0  0
    9.0688  -21.7833    0.0000 C   0  0
   11.2337  -21.5329    0.0000 C   0  0
   11.6698  -17.2804    0.0000 C   0  0
   12.9701  -16.5327    0.0000 O   0  0
   10.3716  -16.5273    0.0000 N   0  0
   10.3737  -15.0265    0.0000 C   0  0  2  0  0  0
    9.0755  -14.2734    0.0000 C   0  0
    7.7751  -15.0212    0.0000 O   0  0
    9.0776  -12.7726    0.0000 N   0  0
    7.7794  -12.0195    0.0000 C   0  0  1  0  0  0
    6.4799  -12.7704    0.0000 C   0  0
    6.4794  -14.2712    0.0000 C   0  0
    5.1799  -15.0220    0.0000 C   0  0
    5.1794  -16.5228    0.0000 N   0  0
    3.8799  -17.2737    0.0000 C   0  0
    3.8794  -18.7737    0.0000 N   0  0
    2.5809  -16.5237    0.0000 N   0  0
    7.7815  -10.5187    0.0000 C   0  0
    9.0819   -9.7710    0.0000 O   0  0
    6.4833   -9.7656    0.0000 N   0  0
    6.4855   -8.2648    0.0000 C   0  0  2  0  0  0
    5.1873   -7.5117    0.0000 C   0  0
    3.8869   -8.2595    0.0000 O   0  0
    5.1894   -6.0109    0.0000 N   0  0
    3.8912   -5.2578    0.0000 C   0  0  1  0  0  0
    2.5917   -6.0086    0.0000 C   0  0
    2.5912   -7.5095    0.0000 C   0  0
    1.2917   -8.2603    0.0000 C   0  0
    1.2912   -9.7611    0.0000 C   0  0
   -0.0076  -10.5115    0.0000 N   0  0
    3.8933   -3.7570    0.0000 C   0  0
    5.1937   -3.0093    0.0000 O   0  0
    2.5951   -3.0039    0.0000 N   0  0
    2.5973   -1.5031    0.0000 C   0  0
    1.2990   -0.7500    0.0000 C   0  0
    1.2990    0.7500    0.0000 C   0  0
    0.0000    1.5000    0.0000 C   0  0
   -1.2990    0.7500    0.0000 C   0  0
   -2.6003    1.4977    0.0000 C   0  0
   -3.8983    0.7459    0.0000 N   0  0
   -2.6030    2.9977    0.0000 N   0  0
   -1.2990   -0.7500    0.0000 C   0  0
    0.0000   -1.5000    0.0000 C   0  0
    7.7850   -7.5140    0.0000 C   0  0
    7.7855   -6.0140    0.0000 C   0  0
    9.0840   -8.2640    0.0000 C   0  0
   11.6732  -14.2757    0.0000 C   0  0
   11.6737  -12.7757    0.0000 C   0  0
   12.9722  -15.0257    0.0000 C   0  0
  1  2  1  0
  2  3  2  0
  2  4  1  0
  5  4  1  1
  5  6  1  0
  6  7  1  0
  7  8  1  0
  7  9  1  0
  5 10  1  0
 10 11  2  0
 10 12  1  0
 13 12  1  6
 13 14  1  0
 14 15  1  0
 15 16  1  0
 15 17  1  0
 13 18  1  0
 18 19  2  0
 18 20  1  0
 21 20  1  1
 21 22  1  0
 22 23  1  0
 23 24  1  0
 23 25  1  0
 21 26  1  0
 26 27  2  0
 26 28  1  0
 29 28  1  6
 29 30  1  0
 30 31  2  0
 30 32  1  0
 33 32  1  1
 33 34  1  0
 34 35  1  0
 35 36  1  0
 36 37  1  0
 37 38  1  0
 38 39  2  0
 38 40  1  0
 33 41  1  0
 41 42  2  0
 41 43  1  0
 44 43  1  6
 44 45  1  0
 45 46  2  0
 45 47  1  0
 48 47  1  1
 48 49  1  0
 49 50  1  0
 50 51  1  0
 51 52  1  0
 52 53  1  0
 48 54  1  0
 54 55  2  0
 54 56  1  0
 56 57  1  0
 57 58  1  0
 58 59  2  0
 59 60  1  0
 60 61  2  0
 61 62  1  0
 62 63  2  0
 62 64  1  0
 61 65  1  0
 65 66  2  0
 66 58  1  0
 44 67  1  0
 67 68  1  0
 67 69  1  0
 29 70  1  0
 70 71  1  0
 70 72  1  0
M  END
> <assay_chembl_id>
CHEMBL4050601

> <assay_description>
Antiproliferative activity against human LNCAP cells assessed as reduction in metabolic activity after 72 hrs by MTT assay

> <document_journal>
J Med Chem

> <molecule_chembl_id>
CHEMBL4075692

> <standard_value>
60000

> <IC50_uM>
60

> <Activity>
No

> <Canonical_Smiles>
CC(=O)N[C@@H](CC(C)C)C(=O)N[C@@H](CC(C)C)C(=O)N[C@@H](CC(C)C)C(=O)N[C@H](C(=O)N[C@@H](CCCNC(=N)N)C(=O)N[C@H](C(=O)N[C@@H](CCCCN)C(=O)NCc1ccc(C(=N)N)cc1)C(C)C)C(C)C

$$$$

  SciTegic03142313312D

 76 77  0  0  1  0            999 V2000
   -2.1616    7.7543    0.0000 C   0  0
   -1.2953    8.2537    0.0000 C   0  0
   -1.2948    9.7537    0.0000 O   0  0
    0.0038    7.5021    0.0000 N   0  0
    0.0033    6.0012    0.0000 C   0  0  1  0  0  0
   -1.2985    5.2543    0.0000 C   0  0
   -2.5967    6.0074    0.0000 C   0  0
   -3.8977    5.2609    0.0000 C   0  0
   -2.5943    7.0074    0.0000 C   0  0
    1.3023    5.2496    0.0000 C   0  0
    2.1687    5.7491    0.0000 O   0  0
    1.3019    3.7488    0.0000 N   0  0
    2.6009    2.9971    0.0000 C   0  0  1  0  0  0
    3.8996    3.7494    0.0000 C   0  0
    3.8984    5.2502    0.0000 C   0  0
    5.1964    6.0021    0.0000 C   0  0
    3.0318    5.7493    0.0000 C   0  0
    2.6005    1.4963    0.0000 C   0  0
    1.7341    0.9969    0.0000 O   0  0
    3.8995    0.7447    0.0000 N   0  0
    3.8990   -0.7562    0.0000 C   0  0  1  0  0  0
    2.5973   -1.5031    0.0000 C   0  0
    1.2990   -0.7500    0.0000 C   0  0
    1.2990    0.7500    0.0000 C   0  0
    0.0000    1.5000    0.0000 C   0  0
   -1.2990    0.7500    0.0000 C   0  0
   -1.2990   -0.7500    0.0000 C   0  0
    0.0000   -1.5000    0.0000 C   0  0
    5.1972   -1.5092    0.0000 C   0  0
    5.1949   -2.5092    0.0000 O   0  0
    6.4990   -0.7623    0.0000 N   0  0
    7.7972   -1.5154    0.0000 C   0  0  1  0  0  0
    7.7906   -3.0162    0.0000 C   0  0
    6.4880   -3.7617    0.0000 C   0  0
    6.4813   -5.2617    0.0000 C   0  0
    5.6240   -3.2582    0.0000 C   0  0
    9.0990   -0.7685    0.0000 C   0  0
    9.1025    0.7315    0.0000 O   0  0
   10.3972   -1.5216    0.0000 N   0  0
   11.6989   -0.7747    0.0000 C   0  0  1  0  0  0
   11.6994    0.7262    0.0000 C   0  0
   10.4004    1.4778    0.0000 C   0  0
   10.4008    2.9786    0.0000 C   0  0
    9.1018    3.7303    0.0000 N   0  0
    9.1023    5.2311    0.0000 C   0  0
    7.8039    5.9823    0.0000 N   0  0
   10.4018    5.9803    0.0000 N   0  0
   12.9971   -1.5277    0.0000 C   0  0
   12.9936   -3.0277    0.0000 O   0  0
   14.2989   -0.7808    0.0000 N   0  0
   15.5971   -1.5339    0.0000 C   0  0  2  0  0  0
   16.8989   -0.7870    0.0000 C   0  0
   16.9024    0.7130    0.0000 O   0  0
   18.1971   -1.5401    0.0000 N   0  0
   19.4989   -0.7931    0.0000 C   0  0  1  0  0  0
   19.4993    0.7077    0.0000 C   0  0
   18.2003    1.4593    0.0000 C   0  0
   18.2008    2.9602    0.0000 C   0  0
   16.9017    3.7118    0.0000 C   0  0
   16.9022    5.2118    0.0000 N   0  0
   20.7971   -1.5462    0.0000 C   0  0
   20.7935   -3.0462    0.0000 O   0  0
   22.0988   -0.7993    0.0000 N   0  0
   23.3970   -1.5524    0.0000 C   0  0
   24.6988   -0.8055    0.0000 C   0  0
   25.9974   -1.5563    0.0000 C   0  0
   27.2970   -0.8071    0.0000 C   0  0
   27.2979    0.6929    0.0000 C   0  0
   28.5966    1.4451    0.0000 C   0  0
   28.5955    2.9451    0.0000 N   0  0
   29.8965    0.6966    0.0000 N   0  0
   25.9994    1.4437    0.0000 C   0  0
   24.6999    0.6946    0.0000 C   0  0
   15.5966   -3.0347    0.0000 C   0  0
   16.8950   -3.7860    0.0000 C   0  0
   14.2971   -3.7839    0.0000 C   0  0
  1  2  1  0
  2  3  2  0
  2  4  1  0
  5  4  1  6
  5  6  1  0
  6  7  1  0
  7  8  1  0
  7  9  1  0
  5 10  1  0
 10 11  2  0
 10 12  1  0
 13 12  1  1
 13 14  1  0
 14 15  1  0
 15 16  1  0
 15 17  1  0
 13 18  1  0
 18 19  2  0
 18 20  1  0
 21 20  1  6
 21 22  1  0
 22 23  1  0
 23 24  2  0
 24 25  1  0
 25 26  2  0
 26 27  1  0
 27 28  2  0
 28 23  1  0
 21 29  1  0
 29 30  2  0
 29 31  1  0
 32 31  1  6
 32 33  1  0
 33 34  1  0
 34 35  1  0
 34 36  1  0
 32 37  1  0
 37 38  2  0
 37 39  1  0
 40 39  1  1
 40 41  1  0
 41 42  1  0
 42 43  1  0
 43 44  1  0
 44 45  1  0
 45 46  2  0
 45 47  1  0
 40 48  1  0
 48 49  2  0
 48 50  1  0
 51 50  1  6
 51 52  1  0
 52 53  2  0
 52 54  1  0
 55 54  1  1
 55 56  1  0
 56 57  1  0
 57 58  1  0
 58 59  1  0
 59 60  1  0
 55 61  1  0
 61 62  2  0
 61 63  1  0
 63 64  1  0
 64 65  1  0
 65 66  2  0
 66 67  1  0
 67 68  2  0
 68 69  1  0
 69 70  2  0
 69 71  1  0
 68 72  1  0
 72 73  2  0
 73 65  1  0
 51 74  1  0
 74 75  1  0
 74 76  1  0
M  END
> <assay_chembl_id>
CHEMBL4050601

> <assay_description>
Antiproliferative activity against human LNCAP cells assessed as reduction in metabolic activity after 72 hrs by MTT assay

> <document_journal>
J Med Chem

> <molecule_chembl_id>
CHEMBL4067486

> <standard_value>
40000

> <IC50_uM>
40

> <Activity>
No

> <Canonical_Smiles>
CC(=O)N[C@@H](CC(C)C)C(=O)N[C@@H](CC(C)C)C(=O)N[C@@H](Cc1ccccc1)C(=O)N[C@@H](CC(C)C)C(=O)N[C@@H](CCCNC(=N)N)C(=O)N[C@H](C(=O)N[C@@H](CCCCN)C(=O)NCc1ccc(C(=N)N)cc1)C(C)C

$$$$

  SciTegic03142313312D

 73 73  0  0  1  0            999 V2000
    9.0688  -21.7833    0.0000 C   0  0
   10.3676  -21.0329    0.0000 C   0  0
   10.3681  -19.5321    0.0000 C   0  0  2  0  0  0
    9.0691  -18.7821    0.0000 C   0  0
   11.6676  -18.7813    0.0000 C   0  0  2  0  0  0
   12.9658  -19.5343    0.0000 N   0  0
   12.9637  -21.0352    0.0000 C   0  0
   11.6634  -21.7829    0.0000 O   0  0
   14.2619  -21.7882    0.0000 C   0  0  2  0  0  0
   15.5645  -21.0428    0.0000 C   0  0
   16.8619  -21.7973    0.0000 C   0  0
   18.1638  -21.0522    0.0000 C   0  0
   16.8584  -22.7973    0.0000 C   0  0
   14.2598  -23.2891    0.0000 N   0  0
   15.5580  -24.0422    0.0000 C   0  0
   16.4249  -23.5437    0.0000 O   0  0
   15.5558  -25.5430    0.0000 C   0  0  2  0  0  0
   14.2563  -26.2938    0.0000 C   0  0
   14.2558  -27.7946    0.0000 C   0  0
   12.9570  -28.5450    0.0000 C   0  0
   15.1219  -28.2946    0.0000 C   0  0
   16.8540  -26.2961    0.0000 N   0  0
   16.8519  -27.7969    0.0000 C   0  0
   15.9850  -28.2954    0.0000 C   0  0
   18.1494  -28.5495    0.0000 O   0  0
   11.6698  -17.2804    0.0000 C   0  0
   12.5367  -16.7819    0.0000 O   0  0
   10.3716  -16.5273    0.0000 N   0  0
   10.3737  -15.0265    0.0000 C   0  0  1  0  0  0
   11.6763  -14.2810    0.0000 C   0  0
   12.9737  -15.0356    0.0000 C   0  0
   14.2755  -14.2905    0.0000 C   0  0
   12.9702  -16.0356    0.0000 C   0  0
    9.0755  -14.2734    0.0000 C   0  0
    7.7751  -15.0212    0.0000 O   0  0
    9.0776  -12.7726    0.0000 N   0  0
    7.7794  -12.0195    0.0000 C   0  0  1  0  0  0
    6.4799  -12.7704    0.0000 C   0  0
    6.4794  -14.2712    0.0000 C   0  0
    5.1799  -15.0220    0.0000 C   0  0
    5.1794  -16.5228    0.0000 N   0  0
    3.8799  -17.2737    0.0000 C   0  0
    3.8794  -18.7737    0.0000 N   0  0
    2.5809  -16.5237    0.0000 N   0  0
    7.7815  -10.5187    0.0000 C   0  0
    9.0819   -9.7710    0.0000 O   0  0
    6.4833   -9.7656    0.0000 N   0  0
    6.4855   -8.2648    0.0000 C   0  0  2  0  0  0
    5.1873   -7.5117    0.0000 C   0  0
    3.8869   -8.2595    0.0000 O   0  0
    5.1894   -6.0109    0.0000 N   0  0
    3.8912   -5.2578    0.0000 C   0  0  1  0  0  0
    2.5917   -6.0086    0.0000 C   0  0
    2.5912   -7.5095    0.0000 C   0  0
    1.2917   -8.2603    0.0000 C   0  0
    1.2912   -9.7611    0.0000 C   0  0
   -0.0076  -10.5115    0.0000 N   0  0
    3.8933   -3.7570    0.0000 C   0  0
    5.1937   -3.0093    0.0000 O   0  0
    2.5951   -3.0039    0.0000 N   0  0
    2.5973   -1.5031    0.0000 C   0  0
    1.2990   -0.7500    0.0000 C   0  0
    1.2990    0.7500    0.0000 C   0  0
    0.0000    1.5000    0.0000 C   0  0
   -1.2990    0.7500    0.0000 C   0  0
   -2.6003    1.4977    0.0000 C   0  0
   -3.8983    0.7459    0.0000 N   0  0
   -2.6030    2.9977    0.0000 N   0  0
   -1.2990   -0.7500    0.0000 C   0  0
    0.0000   -1.5000    0.0000 C   0  0
    7.7850   -7.5140    0.0000 C   0  0
    7.7855   -6.0140    0.0000 C   0  0
    9.0840   -8.2640    0.0000 C   0  0
  1  2  1  0
  2  3  1  0
  3  4  1  6
  3  5  1  0
  5  6  1  1
  6  7  1  0
  7  8  2  0
  7  9  1  0
  9 10  1  6
 10 11  1  0
 11 12  1  0
 11 13  1  0
  9 14  1  0
 14 15  1  0
 15 16  2  0
 15 17  1  0
 17 18  1  1
 18 19  1  0
 19 20  1  0
 19 21  1  0
 17 22  1  0
 22 23  1  0
 23 24  1  0
 23 25  2  0
  5 26  1  0
 26 27  2  0
 26 28  1  0
 29 28  1  6
 29 30  1  0
 30 31  1  0
 31 32  1  0
 31 33  1  0
 29 34  1  0
 34 35  2  0
 34 36  1  0
 37 36  1  1
 37 38  1  0
 38 39  1  0
 39 40  1  0
 40 41  1  0
 41 42  1  0
 42 43  2  0
 42 44  1  0
 37 45  1  0
 45 46  2  0
 45 47  1  0
 48 47  1  6
 48 49  1  0
 49 50  2  0
 49 51  1  0
 52 51  1  1
 52 53  1  0
 53 54  1  0
 54 55  1  0
 55 56  1  0
 56 57  1  0
 52 58  1  0
 58 59  2  0
 58 60  1  0
 60 61  1  0
 61 62  1  0
 62 63  2  0
 63 64  1  0
 64 65  2  0
 65 66  1  0
 66 67  2  0
 66 68  1  0
 65 69  1  0
 69 70  2  0
 70 62  1  0
 48 71  1  0
 71 72  1  0
 71 73  1  0
M  END
> <assay_chembl_id>
CHEMBL4050601

> <assay_description>
Antiproliferative activity against human LNCAP cells assessed as reduction in metabolic activity after 72 hrs by MTT assay

> <document_journal>
J Med Chem

> <molecule_chembl_id>
CHEMBL4070834

> <standard_value>
80000

> <IC50_uM>
80

> <Activity>
No

> <Canonical_Smiles>
CC[C@H](C)[C@H](NC(=O)[C@H](CC(C)C)NC(=O)[C@H](CC(C)C)NC(C)=O)C(=O)N[C@@H](CC(C)C)C(=O)N[C@@H](CCCNC(=N)N)C(=O)N[C@H](C(=O)N[C@@H](CCCCN)C(=O)NCc1ccc(C(=N)N)cc1)C(C)C

$$$$

  SciTegic03142313312D

 76 77  0  0  1  0            999 V2000
    2.1687    5.7491    0.0000 C   0  0
    1.3023    5.2496    0.0000 C   0  0
    0.0040    6.0008    0.0000 O   0  0
    1.3019    3.7488    0.0000 N   0  0
    2.6009    2.9971    0.0000 C   0  0  1  0  0  0
    3.8996    3.7494    0.0000 C   0  0
    3.8984    5.2502    0.0000 C   0  0
    5.1964    6.0021    0.0000 C   0  0
    3.0318    5.7493    0.0000 C   0  0
    2.6005    1.4963    0.0000 C   0  0
    1.7341    0.9969    0.0000 O   0  0
    3.8995    0.7447    0.0000 N   0  0
    3.8990   -0.7562    0.0000 C   0  0  1  0  0  0
    2.5973   -1.5031    0.0000 C   0  0
    1.2990   -0.7500    0.0000 C   0  0
    1.2990    0.7500    0.0000 C   0  0
    0.0000    1.5000    0.0000 C   0  0
   -1.2990    0.7500    0.0000 C   0  0
   -1.2990   -0.7500    0.0000 C   0  0
    0.0000   -1.5000    0.0000 C   0  0
    5.1972   -1.5092    0.0000 C   0  0
    5.1949   -2.5092    0.0000 O   0  0
    6.4990   -0.7623    0.0000 N   0  0
    7.7972   -1.5154    0.0000 C   0  0  1  0  0  0
    7.7906   -3.0162    0.0000 C   0  0
    6.4880   -3.7617    0.0000 C   0  0
    6.4813   -5.2617    0.0000 C   0  0
    5.6240   -3.2582    0.0000 C   0  0
    9.0990   -0.7685    0.0000 C   0  0
    9.1013    0.2315    0.0000 O   0  0
   10.3972   -1.5216    0.0000 N   0  0
   11.6989   -0.7747    0.0000 C   0  0  1  0  0  0
   11.6994    0.7262    0.0000 C   0  0
   10.4004    1.4778    0.0000 C   0  0
   10.4008    2.9778    0.0000 C   0  0
    9.5340    0.9784    0.0000 C   0  0
   12.9971   -1.5277    0.0000 C   0  0
   12.9936   -3.0277    0.0000 O   0  0
   14.2989   -0.7808    0.0000 N   0  0
   15.5971   -1.5339    0.0000 C   0  0  1  0  0  0
   15.5905   -3.0347    0.0000 C   0  0
   14.2879   -3.7802    0.0000 C   0  0
   14.2812   -5.2810    0.0000 C   0  0
   12.9786   -6.0265    0.0000 N   0  0
   12.9720   -7.5273    0.0000 C   0  0
   11.6701   -8.2724    0.0000 N   0  0
   14.2679   -8.2826    0.0000 N   0  0
   16.8989   -0.7870    0.0000 C   0  0
   16.9024    0.7130    0.0000 O   0  0
   18.1971   -1.5401    0.0000 N   0  0
   19.4989   -0.7931    0.0000 C   0  0  2  0  0  0
   20.7971   -1.5462    0.0000 C   0  0
   20.7935   -3.0462    0.0000 O   0  0
   22.0988   -0.7993    0.0000 N   0  0
   23.3970   -1.5524    0.0000 C   0  0  1  0  0  0
   23.3904   -3.0532    0.0000 C   0  0
   22.0878   -3.7987    0.0000 C   0  0
   22.0812   -5.2995    0.0000 C   0  0
   20.7786   -6.0450    0.0000 C   0  0
   20.7719   -7.5450    0.0000 N   0  0
   24.6988   -0.8055    0.0000 C   0  0
   24.7024    0.6945    0.0000 O   0  0
   25.9970   -1.5586    0.0000 N   0  0
   27.2988   -0.8116    0.0000 C   0  0
   28.5970   -1.5647    0.0000 C   0  0
   29.8992   -0.8201    0.0000 C   0  0
   31.1951   -1.5754    0.0000 C   0  0
   31.1890   -3.0754    0.0000 C   0  0
   32.4841   -3.8338    0.0000 C   0  0
   32.4758   -5.3338    0.0000 N   0  0
   33.7875   -3.0914    0.0000 N   0  0
   29.8869   -3.8201    0.0000 C   0  0
   28.5909   -3.0648    0.0000 C   0  0
   19.5055    0.7077    0.0000 C   0  0
   20.8074    1.4527    0.0000 C   0  0
   18.2096    1.4630    0.0000 C   0  0
  1  2  1  0
  2  3  2  0
  2  4  1  0
  5  4  1  1
  5  6  1  0
  6  7  1  0
  7  8  1  0
  7  9  1  0
  5 10  1  0
 10 11  2  0
 10 12  1  0
 13 12  1  6
 13 14  1  0
 14 15  1  0
 15 16  2  0
 16 17  1  0
 17 18  2  0
 18 19  1  0
 19 20  2  0
 20 15  1  0
 13 21  1  0
 21 22  2  0
 21 23  1  0
 24 23  1  6
 24 25  1  0
 25 26  1  0
 26 27  1  0
 26 28  1  0
 24 29  1  0
 29 30  2  0
 29 31  1  0
 32 31  1  1
 32 33  1  0
 33 34  1  0
 34 35  1  0
 34 36  1  0
 32 37  1  0
 37 38  2  0
 37 39  1  0
 40 39  1  6
 40 41  1  0
 41 42  1  0
 42 43  1  0
 43 44  1  0
 44 45  1  0
 45 46  2  0
 45 47  1  0
 40 48  1  0
 48 49  2  0
 48 50  1  0
 51 50  1  1
 51 52  1  0
 52 53  2  0
 52 54  1  0
 55 54  1  6
 55 56  1  0
 56 57  1  0
 57 58  1  0
 58 59  1  0
 59 60  1  0
 55 61  1  0
 61 62  2  0
 61 63  1  0
 63 64  1  0
 64 65  1  0
 65 66  2  0
 66 67  1  0
 67 68  2  0
 68 69  1  0
 69 70  2  0
 69 71  1  0
 68 72  1  0
 72 73  2  0
 73 65  1  0
 51 74  1  0
 74 75  1  0
 74 76  1  0
M  END
> <assay_chembl_id>
CHEMBL4050601

> <assay_description>
Antiproliferative activity against human LNCAP cells assessed as reduction in metabolic activity after 72 hrs by MTT assay

> <document_journal>
J Med Chem

> <molecule_chembl_id>
CHEMBL4085516

> <standard_value>
31000

> <IC50_uM>
31

> <Activity>
No

> <Canonical_Smiles>
CC(=O)N[C@@H](CC(C)C)C(=O)N[C@@H](Cc1ccccc1)C(=O)N[C@@H](CC(C)C)C(=O)N[C@@H](CC(C)C)C(=O)N[C@@H](CCCNC(=N)N)C(=O)N[C@H](C(=O)N[C@@H](CCCCN)C(=O)NCc1ccc(C(=N)N)cc1)C(C)C

$$$$

  SciTegic03142313312D

 73 73  0  0  1  0            999 V2000
   18.1638  -21.0522    0.0000 C   0  0
   16.8619  -21.7973    0.0000 C   0  0
   15.5645  -21.0428    0.0000 C   0  0  2  0  0  0
   15.5697  -19.5428    0.0000 C   0  0
   14.2619  -21.7882    0.0000 C   0  0  2  0  0  0
   14.2598  -23.2891    0.0000 N   0  0
   15.5580  -24.0422    0.0000 C   0  0
   16.8583  -23.2944    0.0000 O   0  0
   15.5558  -25.5430    0.0000 C   0  0  2  0  0  0
   14.2563  -26.2938    0.0000 C   0  0
   14.2558  -27.7946    0.0000 C   0  0
   12.9570  -28.5450    0.0000 C   0  0
   15.1219  -28.2946    0.0000 C   0  0
   16.8540  -26.2961    0.0000 N   0  0
   16.8519  -27.7969    0.0000 C   0  0
   15.9850  -28.2954    0.0000 C   0  0
   18.1494  -28.5495    0.0000 O   0  0
   12.9637  -21.0352    0.0000 C   0  0
   12.0968  -21.5337    0.0000 O   0  0
   12.9658  -19.5343    0.0000 N   0  0
   11.6676  -18.7813    0.0000 C   0  0  1  0  0  0
   10.3681  -19.5321    0.0000 C   0  0
   10.3676  -21.0329    0.0000 C   0  0
    9.0688  -21.7833    0.0000 C   0  0
   11.2337  -21.5329    0.0000 C   0  0
   11.6698  -17.2804    0.0000 C   0  0
   12.5367  -16.7819    0.0000 O   0  0
   10.3716  -16.5273    0.0000 N   0  0
   10.3737  -15.0265    0.0000 C   0  0  1  0  0  0
   11.6763  -14.2810    0.0000 C   0  0
   12.9737  -15.0356    0.0000 C   0  0
   14.2755  -14.2905    0.0000 C   0  0
   12.9702  -16.0356    0.0000 C   0  0
    9.0755  -14.2734    0.0000 C   0  0
    7.7751  -15.0212    0.0000 O   0  0
    9.0776  -12.7726    0.0000 N   0  0
    7.7794  -12.0195    0.0000 C   0  0  1  0  0  0
    6.4799  -12.7704    0.0000 C   0  0
    6.4794  -14.2712    0.0000 C   0  0
    5.1799  -15.0220    0.0000 C   0  0
    5.1794  -16.5228    0.0000 N   0  0
    3.8799  -17.2737    0.0000 C   0  0
    3.8794  -18.7737    0.0000 N   0  0
    2.5809  -16.5237    0.0000 N   0  0
    7.7815  -10.5187    0.0000 C   0  0
    9.0819   -9.7710    0.0000 O   0  0
    6.4833   -9.7656    0.0000 N   0  0
    6.4855   -8.2648    0.0000 C   0  0  2  0  0  0
    5.1873   -7.5117    0.0000 C   0  0
    3.8869   -8.2595    0.0000 O   0  0
    5.1894   -6.0109    0.0000 N   0  0
    3.8912   -5.2578    0.0000 C   0  0  1  0  0  0
    2.5917   -6.0086    0.0000 C   0  0
    2.5912   -7.5095    0.0000 C   0  0
    1.2917   -8.2603    0.0000 C   0  0
    1.2912   -9.7611    0.0000 C   0  0
   -0.0076  -10.5115    0.0000 N   0  0
    3.8933   -3.7570    0.0000 C   0  0
    5.1937   -3.0093    0.0000 O   0  0
    2.5951   -3.0039    0.0000 N   0  0
    2.5973   -1.5031    0.0000 C   0  0
    1.2990   -0.7500    0.0000 C   0  0
    1.2990    0.7500    0.0000 C   0  0
    0.0000    1.5000    0.0000 C   0  0
   -1.2990    0.7500    0.0000 C   0  0
   -2.6003    1.4977    0.0000 C   0  0
   -3.8983    0.7459    0.0000 N   0  0
   -2.6030    2.9977    0.0000 N   0  0
   -1.2990   -0.7500    0.0000 C   0  0
    0.0000   -1.5000    0.0000 C   0  0
    7.7850   -7.5140    0.0000 C   0  0
    7.7855   -6.0140    0.0000 C   0  0
    9.0840   -8.2640    0.0000 C   0  0
  1  2  1  0
  2  3  1  0
  3  4  1  1
  3  5  1  0
  5  6  1  6
  6  7  1  0
  7  8  2  0
  7  9  1  0
  9 10  1  1
 10 11  1  0
 11 12  1  0
 11 13  1  0
  9 14  1  0
 14 15  1  0
 15 16  1  0
 15 17  2  0
  5 18  1  0
 18 19  2  0
 18 20  1  0
 21 20  1  1
 21 22  1  0
 22 23  1  0
 23 24  1  0
 23 25  1  0
 21 26  1  0
 26 27  2  0
 26 28  1  0
 29 28  1  6
 29 30  1  0
 30 31  1  0
 31 32  1  0
 31 33  1  0
 29 34  1  0
 34 35  2  0
 34 36  1  0
 37 36  1  1
 37 38  1  0
 38 39  1  0
 39 40  1  0
 40 41  1  0
 41 42  1  0
 42 43  2  0
 42 44  1  0
 37 45  1  0
 45 46  2  0
 45 47  1  0
 48 47  1  6
 48 49  1  0
 49 50  2  0
 49 51  1  0
 52 51  1  1
 52 53  1  0
 53 54  1  0
 54 55  1  0
 55 56  1  0
 56 57  1  0
 52 58  1  0
 58 59  2  0
 58 60  1  0
 60 61  1  0
 61 62  1  0
 62 63  2  0
 63 64  1  0
 64 65  2  0
 65 66  1  0
 66 67  2  0
 66 68  1  0
 65 69  1  0
 69 70  2  0
 70 62  1  0
 48 71  1  0
 71 72  1  0
 71 73  1  0
M  END
> <assay_chembl_id>
CHEMBL4050601

> <assay_description>
Antiproliferative activity against human LNCAP cells assessed as reduction in metabolic activity after 72 hrs by MTT assay

> <document_journal>
J Med Chem

> <molecule_chembl_id>
CHEMBL4065627

> <standard_value>
40000

> <IC50_uM>
40

> <Activity>
No

> <Canonical_Smiles>
CC[C@H](C)[C@H](NC(=O)[C@H](CC(C)C)NC(C)=O)C(=O)N[C@@H](CC(C)C)C(=O)N[C@@H](CC(C)C)C(=O)N[C@@H](CCCNC(=N)N)C(=O)N[C@H](C(=O)N[C@@H](CCCCN)C(=O)NCc1ccc(C(=N)N)cc1)C(C)C

$$$$

  SciTegic03142313312D

 79 81  0  0  1  0            999 V2000
    6.4980   -5.1422    0.0000 C   0  0
    6.1859   -4.1921    0.0000 C   0  0
    7.1862   -3.0744    0.0000 O   0  0
    4.7167   -3.8854    0.0000 N   0  0
    3.7158   -5.0037    0.0000 C   0  0  1  0  0  0
    4.1872   -6.4286    0.0000 C   0  0
    5.6567   -6.7337    0.0000 C   0  0
    6.1279   -8.1578    0.0000 C   0  0
    6.3221   -5.9872    0.0000 C   0  0
    2.2466   -4.6970    0.0000 C   0  0
    1.9345   -3.7470    0.0000 O   0  0
    1.2457   -5.8153    0.0000 N   0  0
   -0.2234   -5.5086    0.0000 C   0  0  1  0  0  0
   -0.6890   -4.0818    0.0000 C   0  0
    0.3114   -2.9665    0.0000 C   0  0
    1.8032   -3.1233    0.0000 C   0  0
    2.4133   -1.7530    0.0000 N   0  0
    1.2990   -0.7500    0.0000 C   0  0
    1.2990    0.7500    0.0000 C   0  0
    0.0000    1.5000    0.0000 C   0  0
   -1.2990    0.7500    0.0000 C   0  0
   -1.2990   -0.7500    0.0000 C   0  0
    0.0000   -1.5000    0.0000 C   0  0
   -1.2256   -6.6258    0.0000 C   0  0
   -2.2041   -6.4194    0.0000 O   0  0
   -0.7600   -8.0526    0.0000 N   0  0
   -1.7622   -9.1698    0.0000 C   0  0  1  0  0  0
   -3.2301   -8.8570    0.0000 C   0  0
   -3.6940   -7.4297    0.0000 C   0  0
   -5.1611   -7.1171    0.0000 C   0  0
   -3.0248   -6.6867    0.0000 C   0  0
   -1.2966  -10.5966    0.0000 C   0  0
   -0.3182  -10.8030    0.0000 O   0  0
   -2.2988  -11.7138    0.0000 N   0  0
   -1.8332  -13.1406    0.0000 C   0  0  1  0  0  0
   -0.3641  -13.4473    0.0000 C   0  0
    0.6368  -12.3290    0.0000 C   0  0
    2.1052  -12.6356    0.0000 C   0  0
    0.3247  -11.3790    0.0000 C   0  0
   -2.8354  -14.2578    0.0000 C   0  0
   -4.3031  -13.9482    0.0000 O   0  0
   -2.3698  -15.6846    0.0000 N   0  0
   -3.3720  -16.8018    0.0000 C   0  0  1  0  0  0
   -4.8399  -16.4890    0.0000 C   0  0
   -5.3038  -15.0617    0.0000 C   0  0
   -6.7717  -14.7490    0.0000 C   0  0
   -7.2357  -13.3217    0.0000 N   0  0
   -8.7036  -13.0089    0.0000 C   0  0
   -9.1673  -11.5824    0.0000 N   0  0
   -9.7075  -14.1234    0.0000 N   0  0
   -2.9064  -18.2286    0.0000 C   0  0
   -1.4387  -18.5382    0.0000 O   0  0
   -3.9086  -19.3458    0.0000 N   0  0
   -3.4430  -20.7726    0.0000 C   0  0  2  0  0  0
   -4.4452  -21.8898    0.0000 C   0  0
   -5.9129  -21.5802    0.0000 O   0  0
   -3.9796  -23.3166    0.0000 N   0  0
   -4.9818  -24.4338    0.0000 C   0  0  1  0  0  0
   -6.4497  -24.1211    0.0000 C   0  0
   -6.9136  -22.6938    0.0000 C   0  0
   -8.3815  -22.3810    0.0000 C   0  0
   -8.8455  -20.9537    0.0000 C   0  0
  -10.3125  -20.6411    0.0000 N   0  0
   -4.5162  -25.8606    0.0000 C   0  0
   -3.0485  -26.1702    0.0000 O   0  0
   -5.5184  -26.9778    0.0000 N   0  0
   -5.0528  -28.4046    0.0000 C   0  0
   -6.0550  -29.5218    0.0000 C   0  0
   -5.5917  -30.9486    0.0000 C   0  0
   -6.5956  -32.0631    0.0000 C   0  0
   -8.0628  -31.7510    0.0000 C   0  0
   -9.0695  -32.8641    0.0000 C   0  0
  -10.5362  -32.5499    0.0000 N   0  0
   -8.6087  -34.2916    0.0000 N   0  0
   -8.5261  -30.3244    0.0000 C   0  0
   -7.5222  -29.2098    0.0000 C   0  0
   -1.9751  -21.0854    0.0000 C   0  0
   -1.5114  -22.5119    0.0000 C   0  0
   -0.9712  -19.9708    0.0000 C   0  0
  1  2  1  0
  2  3  2  0
  2  4  1  0
  5  4  1  1
  5  6  1  0
  6  7  1  0
  7  8  1  0
  7  9  1  0
  5 10  1  0
 10 11  2  0
 10 12  1  0
 13 12  1  6
 13 14  1  0
 14 15  1  0
 15 16  2  0
 16 17  1  0
 17 18  1  0
 18 19  2  0
 19 20  1  0
 20 21  2  0
 21 22  1  0
 22 23  2  0
 23 15  1  0
 23 18  1  0
 13 24  1  0
 24 25  2  0
 24 26  1  0
 27 26  1  6
 27 28  1  0
 28 29  1  0
 29 30  1  0
 29 31  1  0
 27 32  1  0
 32 33  2  0
 32 34  1  0
 35 34  1  1
 35 36  1  0
 36 37  1  0
 37 38  1  0
 37 39  1  0
 35 40  1  0
 40 41  2  0
 40 42  1  0
 43 42  1  6
 43 44  1  0
 44 45  1  0
 45 46  1  0
 46 47  1  0
 47 48  1  0
 48 49  2  0
 48 50  1  0
 43 51  1  0
 51 52  2  0
 51 53  1  0
 54 53  1  1
 54 55  1  0
 55 56  2  0
 55 57  1  0
 58 57  1  6
 58 59  1  0
 59 60  1  0
 60 61  1  0
 61 62  1  0
 62 63  1  0
 58 64  1  0
 64 65  2  0
 64 66  1  0
 66 67  1  0
 67 68  1  0
 68 69  2  0
 69 70  1  0
 70 71  2  0
 71 72  1  0
 72 73  2  0
 72 74  1  0
 71 75  1  0
 75 76  2  0
 76 68  1  0
 54 77  1  0
 77 78  1  0
 77 79  1  0
M  END
> <assay_chembl_id>
CHEMBL4050601

> <assay_description>
Antiproliferative activity against human LNCAP cells assessed as reduction in metabolic activity after 72 hrs by MTT assay

> <document_journal>
J Med Chem

> <molecule_chembl_id>
CHEMBL4072868

> <standard_value>
50000

> <IC50_uM>
50

> <Activity>
No

> <Canonical_Smiles>
CC(=O)N[C@@H](CC(C)C)C(=O)N[C@@H](Cc1c[nH]c2ccccc12)C(=O)N[C@@H](CC(C)C)C(=O)N[C@@H](CC(C)C)C(=O)N[C@@H](CCCNC(=N)N)C(=O)N[C@H](C(=O)N[C@@H](CCCCN)C(=O)NCc1ccc(C(=N)N)cc1)C(C)C

$$$$

  SciTegic03142313312D

 73 73  0  0  1  0            999 V2000
   15.9850  -28.2954    0.0000 C   0  0
   16.8519  -27.7969    0.0000 C   0  0
   18.1494  -28.5495    0.0000 O   0  0
   16.8540  -26.2961    0.0000 N   0  0
   15.5558  -25.5430    0.0000 C   0  0  1  0  0  0
   14.2563  -26.2938    0.0000 C   0  0
   14.2558  -27.7946    0.0000 C   0  0
   12.9570  -28.5450    0.0000 O   0  0
   15.1219  -28.2946    0.0000 O   0  0
   15.5580  -24.0422    0.0000 C   0  0
   16.4249  -23.5437    0.0000 O   0  0
   14.2598  -23.2891    0.0000 N   0  0
   14.2619  -21.7882    0.0000 C   0  0  1  0  0  0
   15.5645  -21.0428    0.0000 C   0  0
   16.8619  -21.7973    0.0000 C   0  0
   18.1638  -21.0522    0.0000 C   0  0
   16.8584  -22.7973    0.0000 C   0  0
   12.9637  -21.0352    0.0000 C   0  0
   12.0968  -21.5337    0.0000 O   0  0
   12.9658  -19.5343    0.0000 N   0  0
   11.6676  -18.7813    0.0000 C   0  0  1  0  0  0
   10.3681  -19.5321    0.0000 C   0  0
   10.3676  -21.0329    0.0000 C   0  0
    9.0688  -21.7833    0.0000 C   0  0
   11.2337  -21.5329    0.0000 C   0  0
   11.6698  -17.2804    0.0000 C   0  0
   12.5367  -16.7819    0.0000 O   0  0
   10.3716  -16.5273    0.0000 N   0  0
   10.3737  -15.0265    0.0000 C   0  0  1  0  0  0
   11.6763  -14.2810    0.0000 C   0  0
   12.9737  -15.0356    0.0000 C   0  0
   14.2755  -14.2905    0.0000 C   0  0
   12.9702  -16.0356    0.0000 C   0  0
    9.0755  -14.2734    0.0000 C   0  0
    7.7751  -15.0212    0.0000 O   0  0
    9.0776  -12.7726    0.0000 N   0  0
    7.7794  -12.0195    0.0000 C   0  0  1  0  0  0
    6.4799  -12.7704    0.0000 C   0  0
    6.4794  -14.2712    0.0000 C   0  0
    5.1799  -15.0220    0.0000 C   0  0
    5.1794  -16.5228    0.0000 N   0  0
    3.8799  -17.2737    0.0000 C   0  0
    3.8794  -18.7737    0.0000 N   0  0
    2.5809  -16.5237    0.0000 N   0  0
    7.7815  -10.5187    0.0000 C   0  0
    9.0819   -9.7710    0.0000 O   0  0
    6.4833   -9.7656    0.0000 N   0  0
    6.4855   -8.2648    0.0000 C   0  0  2  0  0  0
    5.1873   -7.5117    0.0000 C   0  0
    3.8869   -8.2595    0.0000 O   0  0
    5.1894   -6.0109    0.0000 N   0  0
    3.8912   -5.2578    0.0000 C   0  0  1  0  0  0
    2.5917   -6.0086    0.0000 C   0  0
    2.5912   -7.5095    0.0000 C   0  0
    1.2917   -8.2603    0.0000 C   0  0
    1.2912   -9.7611    0.0000 C   0  0
   -0.0076  -10.5115    0.0000 N   0  0
    3.8933   -3.7570    0.0000 C   0  0
    5.1937   -3.0093    0.0000 O   0  0
    2.5951   -3.0039    0.0000 N   0  0
    2.5973   -1.5031    0.0000 C   0  0
    1.2990   -0.7500    0.0000 C   0  0
    1.2990    0.7500    0.0000 C   0  0
    0.0000    1.5000    0.0000 C   0  0
   -1.2990    0.7500    0.0000 C   0  0
   -2.6003    1.4977    0.0000 C   0  0
   -3.8983    0.7459    0.0000 N   0  0
   -2.6030    2.9977    0.0000 N   0  0
   -1.2990   -0.7500    0.0000 C   0  0
    0.0000   -1.5000    0.0000 C   0  0
    7.7850   -7.5140    0.0000 C   0  0
    7.7855   -6.0140    0.0000 C   0  0
    9.0840   -8.2640    0.0000 C   0  0
  1  2  1  0
  2  3  2  0
  2  4  1  0
  5  4  1  1
  5  6  1  0
  6  7  1  0
  7  8  2  0
  7  9  1  0
  5 10  1  0
 10 11  2  0
 10 12  1  0
 13 12  1  6
 13 14  1  0
 14 15  1  0
 15 16  1  0
 15 17  1  0
 13 18  1  0
 18 19  2  0
 18 20  1  0
 21 20  1  1
 21 22  1  0
 22 23  1  0
 23 24  1  0
 23 25  1  0
 21 26  1  0
 26 27  2  0
 26 28  1  0
 29 28  1  6
 29 30  1  0
 30 31  1  0
 31 32  1  0
 31 33  1  0
 29 34  1  0
 34 35  2  0
 34 36  1  0
 37 36  1  1
 37 38  1  0
 38 39  1  0
 39 40  1  0
 40 41  1  0
 41 42  1  0
 42 43  2  0
 42 44  1  0
 37 45  1  0
 45 46  2  0
 45 47  1  0
 48 47  1  6
 48 49  1  0
 49 50  2  0
 49 51  1  0
 52 51  1  1
 52 53  1  0
 53 54  1  0
 54 55  1  0
 55 56  1  0
 56 57  1  0
 52 58  1  0
 58 59  2  0
 58 60  1  0
 60 61  1  0
 61 62  1  0
 62 63  2  0
 63 64  1  0
 64 65  2  0
 65 66  1  0
 66 67  2  0
 66 68  1  0
 65 69  1  0
 69 70  2  0
 70 62  1  0
 48 71  1  0
 71 72  1  0
 71 73  1  0
M  END
> <assay_chembl_id>
CHEMBL4050601

> <assay_description>
Antiproliferative activity against human LNCAP cells assessed as reduction in metabolic activity after 72 hrs by MTT assay

> <document_journal>
J Med Chem

> <molecule_chembl_id>
CHEMBL4102947

> <standard_value>
40000

> <IC50_uM>
40

> <Activity>
No

> <Canonical_Smiles>
CC(=O)N[C@@H](CC(=O)O)C(=O)N[C@@H](CC(C)C)C(=O)N[C@@H](CC(C)C)C(=O)N[C@@H](CC(C)C)C(=O)N[C@@H](CCCNC(=N)N)C(=O)N[C@H](C(=O)N[C@@H](CCCCN)C(=O)NCc1ccc(C(=N)N)cc1)C(C)C

$$$$

  SciTegic03142313312D

 76 77  0  0  1  0            999 V2000
    1.7341    0.9969    0.0000 C   0  0
    2.6005    1.4963    0.0000 C   0  0
    2.6009    2.9963    0.0000 O   0  0
    3.8995    0.7447    0.0000 N   0  0
    3.8990   -0.7562    0.0000 C   0  0  1  0  0  0
    2.5973   -1.5031    0.0000 C   0  0
    1.2990   -0.7500    0.0000 C   0  0
    1.2990    0.7500    0.0000 C   0  0
    0.0000    1.5000    0.0000 C   0  0
   -1.2990    0.7500    0.0000 C   0  0
   -1.2990   -0.7500    0.0000 C   0  0
    0.0000   -1.5000    0.0000 C   0  0
    5.1972   -1.5092    0.0000 C   0  0
    5.1949   -2.5092    0.0000 O   0  0
    6.4990   -0.7623    0.0000 N   0  0
    7.7972   -1.5154    0.0000 C   0  0  1  0  0  0
    7.7906   -3.0162    0.0000 C   0  0
    6.4880   -3.7617    0.0000 C   0  0
    6.4813   -5.2617    0.0000 C   0  0
    5.6240   -3.2582    0.0000 C   0  0
    9.0990   -0.7685    0.0000 C   0  0
    9.1013    0.2315    0.0000 O   0  0
   10.3972   -1.5216    0.0000 N   0  0
   11.6989   -0.7747    0.0000 C   0  0  1  0  0  0
   11.6994    0.7262    0.0000 C   0  0
   10.4004    1.4778    0.0000 C   0  0
   10.4008    2.9778    0.0000 C   0  0
    9.5340    0.9784    0.0000 C   0  0
   12.9971   -1.5277    0.0000 C   0  0
   12.9948   -2.5277    0.0000 O   0  0
   14.2989   -0.7808    0.0000 N   0  0
   15.5971   -1.5339    0.0000 C   0  0  1  0  0  0
   15.5905   -3.0347    0.0000 C   0  0
   14.2879   -3.7802    0.0000 C   0  0
   14.2812   -5.2802    0.0000 C   0  0
   13.4239   -3.2766    0.0000 C   0  0
   16.8989   -0.7870    0.0000 C   0  0
   16.9024    0.7130    0.0000 O   0  0
   18.1971   -1.5401    0.0000 N   0  0
   19.4989   -0.7931    0.0000 C   0  0  1  0  0  0
   19.4993    0.7077    0.0000 C   0  0
   18.2003    1.4593    0.0000 C   0  0
   18.2008    2.9602    0.0000 C   0  0
   16.9017    3.7118    0.0000 N   0  0
   16.9022    5.2126    0.0000 C   0  0
   15.6039    5.9639    0.0000 N   0  0
   18.2017    5.9618    0.0000 N   0  0
   20.7971   -1.5462    0.0000 C   0  0
   20.7935   -3.0462    0.0000 O   0  0
   22.0988   -0.7993    0.0000 N   0  0
   23.3970   -1.5524    0.0000 C   0  0  2  0  0  0
   24.6988   -0.8055    0.0000 C   0  0
   24.7024    0.6945    0.0000 O   0  0
   25.9970   -1.5586    0.0000 N   0  0
   27.2988   -0.8116    0.0000 C   0  0  1  0  0  0
   27.2992    0.6892    0.0000 C   0  0
   26.0002    1.4408    0.0000 C   0  0
   26.0007    2.9417    0.0000 C   0  0
   24.7016    3.6933    0.0000 C   0  0
   24.7021    5.1933    0.0000 N   0  0
   28.5970   -1.5647    0.0000 C   0  0
   28.5934   -3.0647    0.0000 O   0  0
   29.8987   -0.8178    0.0000 N   0  0
   31.1970   -1.5709    0.0000 C   0  0
   32.4987   -0.8240    0.0000 C   0  0
   33.7973   -1.5747    0.0000 C   0  0
   35.0969   -0.8256    0.0000 C   0  0
   35.0978    0.6744    0.0000 C   0  0
   36.3966    1.4266    0.0000 C   0  0
   36.3954    2.9266    0.0000 N   0  0
   37.6964    0.6781    0.0000 N   0  0
   33.7993    1.4253    0.0000 C   0  0
   32.4998    0.6761    0.0000 C   0  0
   23.3966   -3.0532    0.0000 C   0  0
   24.6949   -3.8045    0.0000 C   0  0
   22.0971   -3.8024    0.0000 C   0  0
  1  2  1  0
  2  3  2  0
  2  4  1  0
  5  4  1  6
  5  6  1  0
  6  7  1  0
  7  8  2  0
  8  9  1  0
  9 10  2  0
 10 11  1  0
 11 12  2  0
 12  7  1  0
  5 13  1  0
 13 14  2  0
 13 15  1  0
 16 15  1  6
 16 17  1  0
 17 18  1  0
 18 19  1  0
 18 20  1  0
 16 21  1  0
 21 22  2  0
 21 23  1  0
 24 23  1  1
 24 25  1  0
 25 26  1  0
 26 27  1  0
 26 28  1  0
 24 29  1  0
 29 30  2  0
 29 31  1  0
 32 31  1  6
 32 33  1  0
 33 34  1  0
 34 35  1  0
 34 36  1  0
 32 37  1  0
 37 38  2  0
 37 39  1  0
 40 39  1  1
 40 41  1  0
 41 42  1  0
 42 43  1  0
 43 44  1  0
 44 45  1  0
 45 46  2  0
 45 47  1  0
 40 48  1  0
 48 49  2  0
 48 50  1  0
 51 50  1  6
 51 52  1  0
 52 53  2  0
 52 54  1  0
 55 54  1  1
 55 56  1  0
 56 57  1  0
 57 58  1  0
 58 59  1  0
 59 60  1  0
 55 61  1  0
 61 62  2  0
 61 63  1  0
 63 64  1  0
 64 65  1  0
 65 66  2  0
 66 67  1  0
 67 68  2  0
 68 69  1  0
 69 70  2  0
 69 71  1  0
 68 72  1  0
 72 73  2  0
 73 65  1  0
 51 74  1  0
 74 75  1  0
 74 76  1  0
M  END
> <assay_chembl_id>
CHEMBL4050601

> <assay_description>
Antiproliferative activity against human LNCAP cells assessed as reduction in metabolic activity after 72 hrs by MTT assay

> <document_journal>
J Med Chem

> <molecule_chembl_id>
CHEMBL4095200

> <standard_value>
41000

> <IC50_uM>
41

> <Activity>
No

> <Canonical_Smiles>
CC(=O)N[C@@H](Cc1ccccc1)C(=O)N[C@@H](CC(C)C)C(=O)N[C@@H](CC(C)C)C(=O)N[C@@H](CC(C)C)C(=O)N[C@@H](CCCNC(=N)N)C(=O)N[C@H](C(=O)N[C@@H](CCCCN)C(=O)NCc1ccc(C(=N)N)cc1)C(C)C

$$$$

  SciTegic03142313312D

 73 73  0  0  1  0            999 V2000
   12.9570  -28.5450    0.0000 C   0  0
   14.2558  -27.7946    0.0000 C   0  0
   14.2563  -26.2938    0.0000 C   0  0  2  0  0  0
   12.9573  -25.5438    0.0000 C   0  0
   15.5558  -25.5430    0.0000 C   0  0  2  0  0  0
   16.8540  -26.2961    0.0000 N   0  0
   16.8519  -27.7969    0.0000 C   0  0
   15.5516  -28.5446    0.0000 C   0  0
   18.1494  -28.5495    0.0000 O   0  0
   15.5580  -24.0422    0.0000 C   0  0
   16.4249  -23.5437    0.0000 O   0  0
   14.2598  -23.2891    0.0000 N   0  0
   14.2619  -21.7882    0.0000 C   0  0  1  0  0  0
   15.5645  -21.0428    0.0000 C   0  0
   16.8619  -21.7973    0.0000 C   0  0
   18.1638  -21.0522    0.0000 C   0  0
   16.8584  -22.7973    0.0000 C   0  0
   12.9637  -21.0352    0.0000 C   0  0
   12.0968  -21.5337    0.0000 O   0  0
   12.9658  -19.5343    0.0000 N   0  0
   11.6676  -18.7813    0.0000 C   0  0  1  0  0  0
   10.3681  -19.5321    0.0000 C   0  0
   10.3676  -21.0329    0.0000 C   0  0
    9.0688  -21.7833    0.0000 C   0  0
   11.2337  -21.5329    0.0000 C   0  0
   11.6698  -17.2804    0.0000 C   0  0
   12.5367  -16.7819    0.0000 O   0  0
   10.3716  -16.5273    0.0000 N   0  0
   10.3737  -15.0265    0.0000 C   0  0  1  0  0  0
   11.6763  -14.2810    0.0000 C   0  0
   12.9737  -15.0356    0.0000 C   0  0
   14.2755  -14.2905    0.0000 C   0  0
   12.9702  -16.0356    0.0000 C   0  0
    9.0755  -14.2734    0.0000 C   0  0
    7.7751  -15.0212    0.0000 O   0  0
    9.0776  -12.7726    0.0000 N   0  0
    7.7794  -12.0195    0.0000 C   0  0  1  0  0  0
    6.4799  -12.7704    0.0000 C   0  0
    6.4794  -14.2712    0.0000 C   0  0
    5.1799  -15.0220    0.0000 C   0  0
    5.1794  -16.5228    0.0000 N   0  0
    3.8799  -17.2737    0.0000 C   0  0
    3.8794  -18.7737    0.0000 N   0  0
    2.5809  -16.5237    0.0000 N   0  0
    7.7815  -10.5187    0.0000 C   0  0
    9.0819   -9.7710    0.0000 O   0  0
    6.4833   -9.7656    0.0000 N   0  0
    6.4855   -8.2648    0.0000 C   0  0  2  0  0  0
    5.1873   -7.5117    0.0000 C   0  0
    3.8869   -8.2595    0.0000 O   0  0
    5.1894   -6.0109    0.0000 N   0  0
    3.8912   -5.2578    0.0000 C   0  0  1  0  0  0
    2.5917   -6.0086    0.0000 C   0  0
    2.5912   -7.5095    0.0000 C   0  0
    1.2917   -8.2603    0.0000 C   0  0
    1.2912   -9.7611    0.0000 C   0  0
   -0.0076  -10.5115    0.0000 N   0  0
    3.8933   -3.7570    0.0000 C   0  0
    5.1937   -3.0093    0.0000 O   0  0
    2.5951   -3.0039    0.0000 N   0  0
    2.5973   -1.5031    0.0000 C   0  0
    1.2990   -0.7500    0.0000 C   0  0
    1.2990    0.7500    0.0000 C   0  0
    0.0000    1.5000    0.0000 C   0  0
   -1.2990    0.7500    0.0000 C   0  0
   -2.6003    1.4977    0.0000 C   0  0
   -3.8983    0.7459    0.0000 N   0  0
   -2.6030    2.9977    0.0000 N   0  0
   -1.2990   -0.7500    0.0000 C   0  0
    0.0000   -1.5000    0.0000 C   0  0
    7.7850   -7.5140    0.0000 C   0  0
    7.7855   -6.0140    0.0000 C   0  0
    9.0840   -8.2640    0.0000 C   0  0
  1  2  1  0
  2  3  1  0
  3  4  1  6
  3  5  1  0
  5  6  1  1
  6  7  1  0
  7  8  1  0
  7  9  2  0
  5 10  1  0
 10 11  2  0
 10 12  1  0
 13 12  1  6
 13 14  1  0
 14 15  1  0
 15 16  1  0
 15 17  1  0
 13 18  1  0
 18 19  2  0
 18 20  1  0
 21 20  1  1
 21 22  1  0
 22 23  1  0
 23 24  1  0
 23 25  1  0
 21 26  1  0
 26 27  2  0
 26 28  1  0
 29 28  1  6
 29 30  1  0
 30 31  1  0
 31 32  1  0
 31 33  1  0
 29 34  1  0
 34 35  2  0
 34 36  1  0
 37 36  1  1
 37 38  1  0
 38 39  1  0
 39 40  1  0
 40 41  1  0
 41 42  1  0
 42 43  2  0
 42 44  1  0
 37 45  1  0
 45 46  2  0
 45 47  1  0
 48 47  1  6
 48 49  1  0
 49 50  2  0
 49 51  1  0
 52 51  1  1
 52 53  1  0
 53 54  1  0
 54 55  1  0
 55 56  1  0
 56 57  1  0
 52 58  1  0
 58 59  2  0
 58 60  1  0
 60 61  1  0
 61 62  1  0
 62 63  2  0
 63 64  1  0
 64 65  2  0
 65 66  1  0
 66 67  2  0
 66 68  1  0
 65 69  1  0
 69 70  2  0
 70 62  1  0
 48 71  1  0
 71 72  1  0
 71 73  1  0
M  END
> <assay_chembl_id>
CHEMBL4050601

> <assay_description>
Antiproliferative activity against human LNCAP cells assessed as reduction in metabolic activity after 72 hrs by MTT assay

> <document_journal>
J Med Chem

> <molecule_chembl_id>
CHEMBL4094278

> <standard_value>
40000

> <IC50_uM>
40

> <Activity>
No

> <Canonical_Smiles>
CC[C@H](C)[C@H](NC(C)=O)C(=O)N[C@@H](CC(C)C)C(=O)N[C@@H](CC(C)C)C(=O)N[C@@H](CC(C)C)C(=O)N[C@@H](CCCNC(=N)N)C(=O)N[C@H](C(=O)N[C@@H](CCCCN)C(=O)NCc1ccc(C(=N)N)cc1)C(C)C

$$$$

  SciTegic03142313312D

 72 72  0  0  1  0            999 V2000
   15.5516  -28.5446    0.0000 C   0  0
   16.8519  -27.7969    0.0000 C   0  0
   18.1494  -28.5495    0.0000 O   0  0
   16.8540  -26.2961    0.0000 N   0  0
   15.5558  -25.5430    0.0000 C   0  0  2  0  0  0
   15.5580  -24.0422    0.0000 C   0  0
   16.4249  -23.5437    0.0000 O   0  0
   14.2598  -23.2891    0.0000 N   0  0
   14.2619  -21.7882    0.0000 C   0  0  1  0  0  0
   15.5645  -21.0428    0.0000 C   0  0
   16.8619  -21.7973    0.0000 C   0  0
   18.1638  -21.0522    0.0000 C   0  0
   16.8584  -22.7973    0.0000 C   0  0
   12.9637  -21.0352    0.0000 C   0  0
   12.0968  -21.5337    0.0000 O   0  0
   12.9658  -19.5343    0.0000 N   0  0
   11.6676  -18.7813    0.0000 C   0  0  1  0  0  0
   10.3681  -19.5321    0.0000 C   0  0
   10.3676  -21.0329    0.0000 C   0  0
    9.0688  -21.7833    0.0000 C   0  0
   11.2337  -21.5329    0.0000 C   0  0
   11.6698  -17.2804    0.0000 C   0  0
   12.5367  -16.7819    0.0000 O   0  0
   10.3716  -16.5273    0.0000 N   0  0
   10.3737  -15.0265    0.0000 C   0  0  1  0  0  0
   11.6763  -14.2810    0.0000 C   0  0
   12.9737  -15.0356    0.0000 C   0  0
   14.2755  -14.2905    0.0000 C   0  0
   12.9702  -16.0356    0.0000 C   0  0
    9.0755  -14.2734    0.0000 C   0  0
    7.7751  -15.0212    0.0000 O   0  0
    9.0776  -12.7726    0.0000 N   0  0
    7.7794  -12.0195    0.0000 C   0  0  1  0  0  0
    6.4799  -12.7704    0.0000 C   0  0
    6.4794  -14.2712    0.0000 C   0  0
    5.1799  -15.0220    0.0000 C   0  0
    5.1794  -16.5228    0.0000 N   0  0
    3.8799  -17.2737    0.0000 C   0  0
    3.8794  -18.7737    0.0000 N   0  0
    2.5809  -16.5237    0.0000 N   0  0
    7.7815  -10.5187    0.0000 C   0  0
    9.0819   -9.7710    0.0000 O   0  0
    6.4833   -9.7656    0.0000 N   0  0
    6.4855   -8.2648    0.0000 C   0  0  2  0  0  0
    5.1873   -7.5117    0.0000 C   0  0
    3.8869   -8.2595    0.0000 O   0  0
    5.1894   -6.0109    0.0000 N   0  0
    3.8912   -5.2578    0.0000 C   0  0  1  0  0  0
    2.5917   -6.0086    0.0000 C   0  0
    2.5912   -7.5095    0.0000 C   0  0
    1.2917   -8.2603    0.0000 C   0  0
    1.2912   -9.7611    0.0000 C   0  0
   -0.0076  -10.5115    0.0000 N   0  0
    3.8933   -3.7570    0.0000 C   0  0
    5.1937   -3.0093    0.0000 O   0  0
    2.5951   -3.0039    0.0000 N   0  0
    2.5973   -1.5031    0.0000 C   0  0
    1.2990   -0.7500    0.0000 C   0  0
    1.2990    0.7500    0.0000 C   0  0
    0.0000    1.5000    0.0000 C   0  0
   -1.2990    0.7500    0.0000 C   0  0
   -2.6003    1.4977    0.0000 C   0  0
   -3.8983    0.7459    0.0000 N   0  0
   -2.6030    2.9977    0.0000 N   0  0
   -1.2990   -0.7500    0.0000 C   0  0
    0.0000   -1.5000    0.0000 C   0  0
    7.7850   -7.5140    0.0000 C   0  0
    7.7855   -6.0140    0.0000 C   0  0
    9.0840   -8.2640    0.0000 C   0  0
   14.2532  -26.2885    0.0000 C   0  0
   12.9566  -25.5343    0.0000 C   0  0
   14.2480  -27.7884    0.0000 C   0  0
  1  2  1  0
  2  3  2  0
  2  4  1  0
  5  4  1  1
  5  6  1  0
  6  7  2  0
  6  8  1  0
  9  8  1  6
  9 10  1  0
 10 11  1  0
 11 12  1  0
 11 13  1  0
  9 14  1  0
 14 15  2  0
 14 16  1  0
 17 16  1  1
 17 18  1  0
 18 19  1  0
 19 20  1  0
 19 21  1  0
 17 22  1  0
 22 23  2  0
 22 24  1  0
 25 24  1  6
 25 26  1  0
 26 27  1  0
 27 28  1  0
 27 29  1  0
 25 30  1  0
 30 31  2  0
 30 32  1  0
 33 32  1  1
 33 34  1  0
 34 35  1  0
 35 36  1  0
 36 37  1  0
 37 38  1  0
 38 39  2  0
 38 40  1  0
 33 41  1  0
 41 42  2  0
 41 43  1  0
 44 43  1  6
 44 45  1  0
 45 46  2  0
 45 47  1  0
 48 47  1  1
 48 49  1  0
 49 50  1  0
 50 51  1  0
 51 52  1  0
 52 53  1  0
 48 54  1  0
 54 55  2  0
 54 56  1  0
 56 57  1  0
 57 58  1  0
 58 59  2  0
 59 60  1  0
 60 61  2  0
 61 62  1  0
 62 63  2  0
 62 64  1  0
 61 65  1  0
 65 66  2  0
 66 58  1  0
 44 67  1  0
 67 68  1  0
 67 69  1  0
  5 70  1  0
 70 71  1  0
 70 72  1  0
M  END
> <assay_chembl_id>
CHEMBL4050601

> <assay_description>
Antiproliferative activity against human LNCAP cells assessed as reduction in metabolic activity after 72 hrs by MTT assay

> <document_journal>
J Med Chem

> <molecule_chembl_id>
CHEMBL4061196

> <standard_value>
70000

> <IC50_uM>
70

> <Activity>
No

> <Canonical_Smiles>
CC(=O)N[C@H](C(=O)N[C@@H](CC(C)C)C(=O)N[C@@H](CC(C)C)C(=O)N[C@@H](CC(C)C)C(=O)N[C@@H](CCCNC(=N)N)C(=O)N[C@H](C(=O)N[C@@H](CCCCN)C(=O)NCc1ccc(C(=N)N)cc1)C(C)C)C(C)C

$$$$

  SciTegic03142313312D

 79 81  0  0  1  0            999 V2000
    1.9345   -3.7470    0.0000 C   0  0
    2.2466   -4.6970    0.0000 C   0  0
    3.7150   -5.0036    0.0000 O   0  0
    1.2457   -5.8153    0.0000 N   0  0
   -0.2234   -5.5086    0.0000 C   0  0  1  0  0  0
   -0.6890   -4.0818    0.0000 C   0  0
    0.3114   -2.9665    0.0000 C   0  0
    1.8032   -3.1233    0.0000 C   0  0
    2.4133   -1.7530    0.0000 N   0  0
    1.2990   -0.7500    0.0000 C   0  0
    1.2990    0.7500    0.0000 C   0  0
    0.0000    1.5000    0.0000 C   0  0
   -1.2990    0.7500    0.0000 C   0  0
   -1.2990   -0.7500    0.0000 C   0  0
    0.0000   -1.5000    0.0000 C   0  0
   -1.2256   -6.6258    0.0000 C   0  0
   -2.2041   -6.4194    0.0000 O   0  0
   -0.7600   -8.0526    0.0000 N   0  0
   -1.7622   -9.1698    0.0000 C   0  0  1  0  0  0
   -3.2301   -8.8570    0.0000 C   0  0
   -3.6940   -7.4297    0.0000 C   0  0
   -5.1611   -7.1171    0.0000 C   0  0
   -3.0248   -6.6867    0.0000 C   0  0
   -1.2966  -10.5966    0.0000 C   0  0
   -0.3182  -10.8030    0.0000 O   0  0
   -2.2988  -11.7138    0.0000 N   0  0
   -1.8332  -13.1406    0.0000 C   0  0  1  0  0  0
   -0.3641  -13.4473    0.0000 C   0  0
    0.6368  -12.3290    0.0000 C   0  0
    2.1052  -12.6356    0.0000 C   0  0
    0.3247  -11.3790    0.0000 C   0  0
   -2.8354  -14.2578    0.0000 C   0  0
   -3.8138  -14.0514    0.0000 O   0  0
   -2.3698  -15.6846    0.0000 N   0  0
   -3.3720  -16.8018    0.0000 C   0  0  1  0  0  0
   -4.8399  -16.4890    0.0000 C   0  0
   -5.3038  -15.0617    0.0000 C   0  0
   -6.7709  -14.7491    0.0000 C   0  0
   -4.6346  -14.3187    0.0000 C   0  0
   -2.9064  -18.2286    0.0000 C   0  0
   -1.4387  -18.5382    0.0000 O   0  0
   -3.9086  -19.3458    0.0000 N   0  0
   -3.4430  -20.7726    0.0000 C   0  0  1  0  0  0
   -1.9739  -21.0793    0.0000 C   0  0
   -0.9730  -19.9610    0.0000 C   0  0
    0.4962  -20.2677    0.0000 C   0  0
    1.4971  -19.1494    0.0000 N   0  0
    2.9663  -19.4562    0.0000 C   0  0
    3.9666  -18.3384    0.0000 N   0  0
    3.4345  -20.8812    0.0000 N   0  0
   -4.4452  -21.8898    0.0000 C   0  0
   -5.9129  -21.5802    0.0000 O   0  0
   -3.9796  -23.3166    0.0000 N   0  0
   -4.9818  -24.4338    0.0000 C   0  0  2  0  0  0
   -4.5162  -25.8606    0.0000 C   0  0
   -3.0485  -26.1702    0.0000 O   0  0
   -5.5184  -26.9778    0.0000 N   0  0
   -5.0528  -28.4046    0.0000 C   0  0  1  0  0  0
   -3.5837  -28.7114    0.0000 C   0  0
   -2.5827  -27.5930    0.0000 C   0  0
   -1.1136  -27.8998    0.0000 C   0  0
   -0.1127  -26.7814    0.0000 C   0  0
    1.3557  -27.0880    0.0000 N   0  0
   -6.0550  -29.5218    0.0000 C   0  0
   -7.5227  -29.2123    0.0000 O   0  0
   -5.5894  -30.9486    0.0000 N   0  0
   -6.5916  -32.0658    0.0000 C   0  0
   -6.1260  -33.4926    0.0000 C   0  0
   -7.1260  -34.6107    0.0000 C   0  0
   -6.6578  -36.0358    0.0000 C   0  0
   -5.1896  -36.3428    0.0000 C   0  0
   -4.7182  -37.7677    0.0000 C   0  0
   -3.2495  -38.0727    0.0000 N   0  0
   -5.7163  -38.8875    0.0000 N   0  0
   -4.1895  -35.2248    0.0000 C   0  0
   -4.6577  -33.7998    0.0000 C   0  0
   -6.4509  -24.1271    0.0000 C   0  0
   -7.4513  -25.2448    0.0000 C   0  0
   -6.9192  -22.7021    0.0000 C   0  0
  1  2  1  0
  2  3  2  0
  2  4  1  0
  5  4  1  6
  5  6  1  0
  6  7  1  0
  7  8  2  0
  8  9  1  0
  9 10  1  0
 10 11  2  0
 11 12  1  0
 12 13  2  0
 13 14  1  0
 14 15  2  0
 15  7  1  0
 15 10  1  0
  5 16  1  0
 16 17  2  0
 16 18  1  0
 19 18  1  6
 19 20  1  0
 20 21  1  0
 21 22  1  0
 21 23  1  0
 19 24  1  0
 24 25  2  0
 24 26  1  0
 27 26  1  1
 27 28  1  0
 28 29  1  0
 29 30  1  0
 29 31  1  0
 27 32  1  0
 32 33  2  0
 32 34  1  0
 35 34  1  6
 35 36  1  0
 36 37  1  0
 37 38  1  0
 37 39  1  0
 35 40  1  0
 40 41  2  0
 40 42  1  0
 43 42  1  1
 43 44  1  0
 44 45  1  0
 45 46  1  0
 46 47  1  0
 47 48  1  0
 48 49  2  0
 48 50  1  0
 43 51  1  0
 51 52  2  0
 51 53  1  0
 54 53  1  6
 54 55  1  0
 55 56  2  0
 55 57  1  0
 58 57  1  1
 58 59  1  0
 59 60  1  0
 60 61  1  0
 61 62  1  0
 62 63  1  0
 58 64  1  0
 64 65  2  0
 64 66  1  0
 66 67  1  0
 67 68  1  0
 68 69  2  0
 69 70  1  0
 70 71  2  0
 71 72  1  0
 72 73  2  0
 72 74  1  0
 71 75  1  0
 75 76  2  0
 76 68  1  0
 54 77  1  0
 77 78  1  0
 77 79  1  0
M  END
> <assay_chembl_id>
CHEMBL4050601

> <assay_description>
Antiproliferative activity against human LNCAP cells assessed as reduction in metabolic activity after 72 hrs by MTT assay

> <document_journal>
J Med Chem

> <molecule_chembl_id>
CHEMBL4089351

> <standard_value>
39000

> <IC50_uM>
39

> <Activity>
No

> <Canonical_Smiles>
CC(=O)N[C@@H](Cc1c[nH]c2ccccc12)C(=O)N[C@@H](CC(C)C)C(=O)N[C@@H](CC(C)C)C(=O)N[C@@H](CC(C)C)C(=O)N[C@@H](CCCNC(=N)N)C(=O)N[C@H](C(=O)N[C@@H](CCCCN)C(=O)NCc1ccc(C(=N)N)cc1)C(C)C

$$$$

  SciTegic03142313312D

 73 73  0  0  1  0            999 V2000
    9.0688  -21.7833    0.0000 C   0  0
   10.3676  -21.0329    0.0000 C   0  0
   10.3681  -19.5321    0.0000 C   0  0  2  0  0  0
    9.0691  -18.7821    0.0000 C   0  0
   11.6676  -18.7813    0.0000 C   0  0  2  0  0  0
   12.9658  -19.5343    0.0000 N   0  0
   12.9637  -21.0352    0.0000 C   0  0
   11.6634  -21.7829    0.0000 O   0  0
   14.2619  -21.7882    0.0000 C   0  0  2  0  0  0
   15.5645  -21.0428    0.0000 C   0  0
   16.8619  -21.7973    0.0000 C   0  0
   18.1638  -21.0522    0.0000 C   0  0
   16.8584  -22.7973    0.0000 C   0  0
   14.2598  -23.2891    0.0000 N   0  0
   15.5580  -24.0422    0.0000 C   0  0
   16.4249  -23.5437    0.0000 O   0  0
   15.5558  -25.5430    0.0000 C   0  0  2  0  0  0
   14.2563  -26.2938    0.0000 C   0  0
   14.2558  -27.7946    0.0000 C   0  0
   12.9570  -28.5450    0.0000 C   0  0
   15.1219  -28.2946    0.0000 C   0  0
   16.8540  -26.2961    0.0000 N   0  0
   16.8519  -27.7969    0.0000 C   0  0
   15.9850  -28.2954    0.0000 C   0  0
   18.1494  -28.5495    0.0000 O   0  0
   11.6698  -17.2804    0.0000 C   0  0
   12.9701  -16.5327    0.0000 O   0  0
   10.3716  -16.5273    0.0000 N   0  0
   10.3737  -15.0265    0.0000 C   0  0  2  0  0  0
    9.0755  -14.2734    0.0000 C   0  0
    7.7751  -15.0212    0.0000 O   0  0
    9.0776  -12.7726    0.0000 N   0  0
    7.7794  -12.0195    0.0000 C   0  0  1  0  0  0
    6.4799  -12.7704    0.0000 C   0  0
    6.4794  -14.2712    0.0000 C   0  0
    5.1799  -15.0220    0.0000 C   0  0
    5.1794  -16.5228    0.0000 N   0  0
    3.8799  -17.2737    0.0000 C   0  0
    3.8794  -18.7737    0.0000 N   0  0
    2.5809  -16.5237    0.0000 N   0  0
    7.7815  -10.5187    0.0000 C   0  0
    9.0819   -9.7710    0.0000 O   0  0
    6.4833   -9.7656    0.0000 N   0  0
    6.4855   -8.2648    0.0000 C   0  0  2  0  0  0
    5.1873   -7.5117    0.0000 C   0  0
    3.8869   -8.2595    0.0000 O   0  0
    5.1894   -6.0109    0.0000 N   0  0
    3.8912   -5.2578    0.0000 C   0  0  1  0  0  0
    2.5917   -6.0086    0.0000 C   0  0
    2.5912   -7.5095    0.0000 C   0  0
    1.2917   -8.2603    0.0000 C   0  0
    1.2912   -9.7611    0.0000 C   0  0
   -0.0076  -10.5115    0.0000 N   0  0
    3.8933   -3.7570    0.0000 C   0  0
    5.1937   -3.0093    0.0000 O   0  0
    2.5951   -3.0039    0.0000 N   0  0
    2.5973   -1.5031    0.0000 C   0  0
    1.2990   -0.7500    0.0000 C   0  0
    1.2990    0.7500    0.0000 C   0  0
    0.0000    1.5000    0.0000 C   0  0
   -1.2990    0.7500    0.0000 C   0  0
   -2.6003    1.4977    0.0000 C   0  0
   -3.8983    0.7459    0.0000 N   0  0
   -2.6030    2.9977    0.0000 N   0  0
   -1.2990   -0.7500    0.0000 C   0  0
    0.0000   -1.5000    0.0000 C   0  0
    7.7850   -7.5140    0.0000 C   0  0
    7.7855   -6.0140    0.0000 C   0  0
    9.0840   -8.2640    0.0000 C   0  0
   11.6732  -14.2757    0.0000 C   0  0  1  0  0  0
   12.9722  -15.0257    0.0000 C   0  0
   11.6737  -12.7749    0.0000 C   0  0
   12.9725  -12.0245    0.0000 C   0  0
  1  2  1  0
  2  3  1  0
  3  4  1  6
  3  5  1  0
  5  6  1  1
  6  7  1  0
  7  8  2  0
  7  9  1  0
  9 10  1  6
 10 11  1  0
 11 12  1  0
 11 13  1  0
  9 14  1  0
 14 15  1  0
 15 16  2  0
 15 17  1  0
 17 18  1  1
 18 19  1  0
 19 20  1  0
 19 21  1  0
 17 22  1  0
 22 23  1  0
 23 24  1  0
 23 25  2  0
  5 26  1  0
 26 27  2  0
 26 28  1  0
 29 28  1  6
 29 30  1  0
 30 31  2  0
 30 32  1  0
 33 32  1  1
 33 34  1  0
 34 35  1  0
 35 36  1  0
 36 37  1  0
 37 38  1  0
 38 39  2  0
 38 40  1  0
 33 41  1  0
 41 42  2  0
 41 43  1  0
 44 43  1  6
 44 45  1  0
 45 46  2  0
 45 47  1  0
 48 47  1  1
 48 49  1  0
 49 50  1  0
 50 51  1  0
 51 52  1  0
 52 53  1  0
 48 54  1  0
 54 55  2  0
 54 56  1  0
 56 57  1  0
 57 58  1  0
 58 59  2  0
 59 60  1  0
 60 61  2  0
 61 62  1  0
 62 63  2  0
 62 64  1  0
 61 65  1  0
 65 66  2  0
 66 58  1  0
 44 67  1  0
 67 68  1  0
 67 69  1  0
 29 70  1  0
 70 71  1  6
 70 72  1  0
 72 73  1  0
M  END
> <assay_chembl_id>
CHEMBL4050601

> <assay_description>
Antiproliferative activity against human LNCAP cells assessed as reduction in metabolic activity after 72 hrs by MTT assay

> <document_journal>
J Med Chem

> <molecule_chembl_id>
CHEMBL4095698

> <standard_value>
30000

> <IC50_uM>
30

> <Activity>
No

> <Canonical_Smiles>
CC[C@H](C)[C@H](NC(=O)[C@H](CC(C)C)NC(=O)[C@H](CC(C)C)NC(C)=O)C(=O)N[C@H](C(=O)N[C@@H](CCCNC(=N)N)C(=O)N[C@H](C(=O)N[C@@H](CCCCN)C(=O)NCc1ccc(C(=N)N)cc1)C(C)C)[C@@H](C)CC

$$$$

  SciTegic03142313312D

 73 73  0  0  1  0            999 V2000
    9.0688  -21.7833    0.0000 C   0  0
   10.3676  -21.0329    0.0000 C   0  0
   10.3681  -19.5321    0.0000 C   0  0  2  0  0  0
    9.0691  -18.7821    0.0000 C   0  0
   11.6676  -18.7813    0.0000 C   0  0  2  0  0  0
   12.9658  -19.5343    0.0000 N   0  0
   12.9637  -21.0352    0.0000 C   0  0
   11.6634  -21.7829    0.0000 O   0  0
   14.2619  -21.7882    0.0000 C   0  0  2  0  0  0
   15.5645  -21.0428    0.0000 C   0  0
   16.8619  -21.7973    0.0000 C   0  0
   18.1638  -21.0522    0.0000 C   0  0
   16.8584  -22.7973    0.0000 C   0  0
   14.2598  -23.2891    0.0000 N   0  0
   15.5580  -24.0422    0.0000 C   0  0
   16.4249  -23.5437    0.0000 O   0  0
   15.5558  -25.5430    0.0000 C   0  0  1  0  0  0
   14.2563  -26.2938    0.0000 C   0  0
   14.2558  -27.7946    0.0000 C   0  0
   12.9570  -28.5450    0.0000 C   0  0
   15.1219  -28.2946    0.0000 C   0  0
   16.8540  -26.2961    0.0000 N   0  0
   16.8519  -27.7969    0.0000 C   0  0
   15.9850  -28.2954    0.0000 C   0  0
   18.1494  -28.5495    0.0000 O   0  0
   11.6698  -17.2804    0.0000 C   0  0
   12.9701  -16.5327    0.0000 O   0  0
   10.3716  -16.5273    0.0000 N   0  0
   10.3737  -15.0265    0.0000 C   0  0  2  0  0  0
    9.0755  -14.2734    0.0000 C   0  0
    7.7751  -15.0212    0.0000 O   0  0
    9.0776  -12.7726    0.0000 N   0  0
    7.7794  -12.0195    0.0000 C   0  0  1  0  0  0
    6.4799  -12.7704    0.0000 C   0  0
    6.4794  -14.2712    0.0000 C   0  0
    5.1799  -15.0220    0.0000 C   0  0
    5.1794  -16.5228    0.0000 N   0  0
    3.8799  -17.2737    0.0000 C   0  0
    3.8794  -18.7737    0.0000 N   0  0
    2.5809  -16.5237    0.0000 N   0  0
    7.7815  -10.5187    0.0000 C   0  0
    9.0819   -9.7710    0.0000 O   0  0
    6.4833   -9.7656    0.0000 N   0  0
    6.4855   -8.2648    0.0000 C   0  0  2  0  0  0
    5.1873   -7.5117    0.0000 C   0  0
    3.8869   -8.2595    0.0000 O   0  0
    5.1894   -6.0109    0.0000 N   0  0
    3.8912   -5.2578    0.0000 C   0  0  1  0  0  0
    2.5917   -6.0086    0.0000 C   0  0
    2.5912   -7.5095    0.0000 C   0  0
    1.2917   -8.2603    0.0000 C   0  0
    1.2912   -9.7611    0.0000 C   0  0
   -0.0076  -10.5115    0.0000 N   0  0
    3.8933   -3.7570    0.0000 C   0  0
    5.1937   -3.0093    0.0000 O   0  0
    2.5951   -3.0039    0.0000 N   0  0
    2.5973   -1.5031    0.0000 C   0  0
    1.2990   -0.7500    0.0000 C   0  0
    1.2990    0.7500    0.0000 C   0  0
    0.0000    1.5000    0.0000 C   0  0
   -1.2990    0.7500    0.0000 C   0  0
   -2.6003    1.4977    0.0000 C   0  0
   -3.8983    0.7459    0.0000 N   0  0
   -2.6030    2.9977    0.0000 N   0  0
   -1.2990   -0.7500    0.0000 C   0  0
    0.0000   -1.5000    0.0000 C   0  0
    7.7850   -7.5140    0.0000 C   0  0
    7.7855   -6.0140    0.0000 C   0  0
    9.0840   -8.2640    0.0000 C   0  0
   11.6732  -14.2757    0.0000 C   0  0  1  0  0  0
   12.9722  -15.0257    0.0000 C   0  0
   11.6737  -12.7749    0.0000 C   0  0
   12.9725  -12.0245    0.0000 C   0  0
  1  2  1  0
  2  3  1  0
  3  4  1  6
  3  5  1  0
  5  6  1  1
  6  7  1  0
  7  8  2  0
  7  9  1  0
  9 10  1  6
 10 11  1  0
 11 12  1  0
 11 13  1  0
  9 14  1  0
 14 15  1  0
 15 16  2  0
 15 17  1  0
 17 18  1  6
 18 19  1  0
 19 20  1  0
 19 21  1  0
 17 22  1  0
 22 23  1  0
 23 24  1  0
 23 25  2  0
  5 26  1  0
 26 27  2  0
 26 28  1  0
 29 28  1  6
 29 30  1  0
 30 31  2  0
 30 32  1  0
 33 32  1  1
 33 34  1  0
 34 35  1  0
 35 36  1  0
 36 37  1  0
 37 38  1  0
 38 39  2  0
 38 40  1  0
 33 41  1  0
 41 42  2  0
 41 43  1  0
 44 43  1  6
 44 45  1  0
 45 46  2  0
 45 47  1  0
 48 47  1  1
 48 49  1  0
 49 50  1  0
 50 51  1  0
 51 52  1  0
 52 53  1  0
 48 54  1  0
 54 55  2  0
 54 56  1  0
 56 57  1  0
 57 58  1  0
 58 59  2  0
 59 60  1  0
 60 61  2  0
 61 62  1  0
 62 63  2  0
 62 64  1  0
 61 65  1  0
 65 66  2  0
 66 58  1  0
 44 67  1  0
 67 68  1  0
 67 69  1  0
 29 70  1  0
 70 71  1  6
 70 72  1  0
 72 73  1  0
M  END
> <assay_chembl_id>
CHEMBL4050601

> <assay_description>
Antiproliferative activity against human LNCAP cells assessed as reduction in metabolic activity after 72 hrs by MTT assay

> <document_journal>
J Med Chem

> <molecule_chembl_id>
CHEMBL4068349

> <standard_value>
60000

> <IC50_uM>
60

> <Activity>
No

> <Canonical_Smiles>
CC[C@H](C)[C@H](NC(=O)[C@H](CC(C)C)NC(=O)[C@@H](CC(C)C)NC(C)=O)C(=O)N[C@H](C(=O)N[C@@H](CCCNC(=N)N)C(=O)N[C@H](C(=O)N[C@@H](CCCCN)C(=O)NCc1ccc(C(=N)N)cc1)C(C)C)[C@@H](C)CC

$$$$

  SciTegic03142313312D

 73 73  0  0  1  0            999 V2000
   15.9850  -28.2954    0.0000 C   0  0
   16.8519  -27.7969    0.0000 C   0  0
   18.1494  -28.5495    0.0000 O   0  0
   16.8540  -26.2961    0.0000 N   0  0
   15.5558  -25.5430    0.0000 C   0  0  2  0  0  0
   14.2563  -26.2938    0.0000 C   0  0
   14.2558  -27.7946    0.0000 C   0  0
   12.9570  -28.5450    0.0000 C   0  0
   15.1219  -28.2946    0.0000 C   0  0
   15.5580  -24.0422    0.0000 C   0  0
   16.4249  -23.5437    0.0000 O   0  0
   14.2598  -23.2891    0.0000 N   0  0
   14.2619  -21.7882    0.0000 C   0  0  1  0  0  0
   15.5645  -21.0428    0.0000 C   0  0
   16.8619  -21.7973    0.0000 C   0  0
   18.1638  -21.0522    0.0000 C   0  0
   16.8584  -22.7973    0.0000 C   0  0
   12.9637  -21.0352    0.0000 C   0  0
   12.0968  -21.5337    0.0000 O   0  0
   12.9658  -19.5343    0.0000 N   0  0
   11.6676  -18.7813    0.0000 C   0  0  1  0  0  0
   10.3681  -19.5321    0.0000 C   0  0
   10.3676  -21.0329    0.0000 C   0  0
    9.0688  -21.7833    0.0000 C   0  0
   11.2337  -21.5329    0.0000 C   0  0
   11.6698  -17.2804    0.0000 C   0  0
   12.5367  -16.7819    0.0000 O   0  0
   10.3716  -16.5273    0.0000 N   0  0
   10.3737  -15.0265    0.0000 C   0  0  1  0  0  0
   11.6763  -14.2810    0.0000 C   0  0
   12.9737  -15.0356    0.0000 C   0  0
   14.2755  -14.2905    0.0000 C   0  0
   12.9702  -16.0356    0.0000 C   0  0
    9.0755  -14.2734    0.0000 C   0  0
    7.7751  -15.0212    0.0000 O   0  0
    9.0776  -12.7726    0.0000 N   0  0
    7.7794  -12.0195    0.0000 C   0  0  1  0  0  0
    6.4799  -12.7704    0.0000 C   0  0
    6.4794  -14.2712    0.0000 C   0  0
    5.1799  -15.0220    0.0000 C   0  0
    5.1794  -16.5228    0.0000 N   0  0
    3.8799  -17.2737    0.0000 C   0  0
    3.8794  -18.7737    0.0000 N   0  0
    2.5809  -16.5237    0.0000 N   0  0
    7.7815  -10.5187    0.0000 C   0  0
    9.0819   -9.7710    0.0000 O   0  0
    6.4833   -9.7656    0.0000 N   0  0
    6.4855   -8.2648    0.0000 C   0  0  2  0  0  0
    5.1873   -7.5117    0.0000 C   0  0
    3.8869   -8.2595    0.0000 O   0  0
    5.1894   -6.0109    0.0000 N   0  0
    3.8912   -5.2578    0.0000 C   0  0  1  0  0  0
    2.5917   -6.0086    0.0000 C   0  0
    2.5912   -7.5095    0.0000 C   0  0
    1.2917   -8.2603    0.0000 C   0  0
    1.2912   -9.7611    0.0000 C   0  0
   -0.0076  -10.5115    0.0000 N   0  0
    3.8933   -3.7570    0.0000 C   0  0
    5.1937   -3.0093    0.0000 O   0  0
    2.5951   -3.0039    0.0000 N   0  0
    2.5973   -1.5031    0.0000 C   0  0
    1.2990   -0.7500    0.0000 C   0  0
    1.2990    0.7500    0.0000 C   0  0
    0.0000    1.5000    0.0000 C   0  0
   -1.2990    0.7500    0.0000 C   0  0
   -2.6003    1.4977    0.0000 C   0  0
   -3.8983    0.7459    0.0000 N   0  0
   -2.6030    2.9977    0.0000 N   0  0
   -1.2990   -0.7500    0.0000 C   0  0
    0.0000   -1.5000    0.0000 C   0  0
    7.7850   -7.5140    0.0000 C   0  0
    7.7855   -6.0140    0.0000 C   0  0
    9.0840   -8.2640    0.0000 C   0  0
  1  2  1  0
  2  3  2  0
  2  4  1  0
  5  4  1  6
  5  6  1  0
  6  7  1  0
  7  8  1  0
  7  9  1  0
  5 10  1  0
 10 11  2  0
 10 12  1  0
 13 12  1  6
 13 14  1  0
 14 15  1  0
 15 16  1  0
 15 17  1  0
 13 18  1  0
 18 19  2  0
 18 20  1  0
 21 20  1  1
 21 22  1  0
 22 23  1  0
 23 24  1  0
 23 25  1  0
 21 26  1  0
 26 27  2  0
 26 28  1  0
 29 28  1  6
 29 30  1  0
 30 31  1  0
 31 32  1  0
 31 33  1  0
 29 34  1  0
 34 35  2  0
 34 36  1  0
 37 36  1  1
 37 38  1  0
 38 39  1  0
 39 40  1  0
 40 41  1  0
 41 42  1  0
 42 43  2  0
 42 44  1  0
 37 45  1  0
 45 46  2  0
 45 47  1  0
 48 47  1  6
 48 49  1  0
 49 50  2  0
 49 51  1  0
 52 51  1  1
 52 53  1  0
 53 54  1  0
 54 55  1  0
 55 56  1  0
 56 57  1  0
 52 58  1  0
 58 59  2  0
 58 60  1  0
 60 61  1  0
 61 62  1  0
 62 63  2  0
 63 64  1  0
 64 65  2  0
 65 66  1  0
 66 67  2  0
 66 68  1  0
 65 69  1  0
 69 70  2  0
 70 62  1  0
 48 71  1  0
 71 72  1  0
 71 73  1  0
M  END
> <assay_chembl_id>
CHEMBL4050601

> <assay_description>
Antiproliferative activity against human LNCAP cells assessed as reduction in metabolic activity after 72 hrs by MTT assay

> <document_journal>
J Med Chem

> <molecule_chembl_id>
CHEMBL4103458

> <standard_value>
40000

> <IC50_uM>
40

> <Activity>
No

> <Canonical_Smiles>
CC(=O)N[C@H](CC(C)C)C(=O)N[C@@H](CC(C)C)C(=O)N[C@@H](CC(C)C)C(=O)N[C@@H](CC(C)C)C(=O)N[C@@H](CCCNC(=N)N)C(=O)N[C@H](C(=O)N[C@@H](CCCCN)C(=O)NCc1ccc(C(=N)N)cc1)C(C)C

$$$$

  SciTegic03142313312D

 24 27  0  0  0  0            999 V2000
    1.7978   -5.7203    0.0000 O   0  0
    2.5497   -4.4224    0.0000 C   0  0
    4.0497   -4.4250    0.0000 O   0  0
    1.8032   -3.1233    0.0000 C   0  0
    2.4133   -1.7530    0.0000 C   0  0
    1.2990   -0.7500    0.0000 C   0  0
    1.2990    0.7500    0.0000 N   0  0
    0.0000    1.5000    0.0000 C   0  0
    0.0000    3.0008    0.0000 N   0  0
    1.2978    3.7529    0.0000 C   0  0
    1.2954    5.2529    0.0000 C   0  0
   -0.0048    6.0009    0.0000 O   0  0
   -1.3026    5.2488    0.0000 C   0  0
   -1.3002    3.7488    0.0000 C   0  0
   -1.2990    0.7500    0.0000 N   0  0
   -1.2990   -0.7500    0.0000 C   0  0
   -2.5987   -1.5004    0.0000 N   0  0
   -3.8991   -0.7525    0.0000 C   0  0
   -5.1969   -1.5046    0.0000 C   0  0
   -5.1945   -3.0046    0.0000 O   0  0
   -3.8943   -3.7525    0.0000 C   0  0
   -2.5964   -3.0004    0.0000 C   0  0
    0.0000   -1.5000    0.0000 C   0  0
    0.3114   -2.9665    0.0000 S   0  0
  1  2  2  0
  2  3  1  0
  2  4  1  0
  4  5  2  0
  5  6  1  0
  6  7  2  0
  7  8  1  0
  8  9  1  0
  9 10  1  0
 10 11  1  0
 11 12  1  0
 12 13  1  0
 13 14  1  0
 14  9  1  0
  8 15  2  0
 15 16  1  0
 16 17  1  0
 17 18  1  0
 18 19  1  0
 19 20  1  0
 20 21  1  0
 21 22  1  0
 22 17  1  0
 16 23  2  0
 23  6  1  0
 23 24  1  0
 24  4  1  0
M  END
> <assay_chembl_id>
CHEMBL4051860

> <assay_description>
Antiproliferative activity against PTEN deficient human LNCAP cells after 72 hrs by CCK-8 assay

> <document_journal>
J Med Chem

> <molecule_chembl_id>
CHEMBL4066144

> <standard_value>
23550

> <IC50_uM>
23.55

> <Activity>
No

> <Canonical_Smiles>
O=C(O)c1cc2nc(N3CCOCC3)nc(N3CCOCC3)c2s1

$$$$

  SciTegic03142313312D

 28 32  0  0  1  0            999 V2000
    6.4971   -0.7566    0.0000 C   0  0
    5.1969   -1.5045    0.0000 C   0  0  2  0  0  0
    3.8991   -0.7525    0.0000 C   0  0
    2.5987   -1.5004    0.0000 N   0  0
    1.2990   -0.7500    0.0000 C   0  0
    1.2990    0.7500    0.0000 N   0  0
    0.0000    1.5000    0.0000 C   0  0
    0.0000    3.0008    0.0000 N   0  0
    1.2978    3.7529    0.0000 C   0  0
    1.2954    5.2529    0.0000 C   0  0
   -0.0048    6.0009    0.0000 O   0  0
   -1.3026    5.2488    0.0000 C   0  0
   -1.3002    3.7488    0.0000 C   0  0
   -1.2990    0.7500    0.0000 C   0  0
   -2.7248    1.2135    0.0000 S   0  0
   -3.6065    0.0000    0.0000 C   0  0
   -5.1072    0.0000    0.0000 C   0  0
   -6.0557    1.1393    0.0000 C   0  0
   -7.4417    0.5656    0.0000 C   0  0
   -7.3243   -0.9298    0.0000 N   0  0
   -5.8659   -1.2803    0.0000 N   0  0
   -2.7248   -1.2135    0.0000 C   0  0
   -1.2990   -0.7500    0.0000 C   0  0
    0.0000   -1.5000    0.0000 N   0  0
    2.5965   -3.0004    0.0000 C   0  0
    3.8943   -3.7525    0.0000 C   0  0  2  0  0  0
    3.8919   -5.2525    0.0000 C   0  0
    5.1945   -3.0045    0.0000 O   0  0
  2  1  1  1
  2  3  1  0
  3  4  1  0
  4  5  1  0
  5  6  2  0
  6  7  1  0
  7  8  1  0
  8  9  1  0
  9 10  1  0
 10 11  1  0
 11 12  1  0
 12 13  1  0
 13  8  1  0
  7 14  2  0
 14 15  1  0
 15 16  1  0
 16 17  1  0
 17 18  2  0
 18 19  1  0
 19 20  2  0
 20 21  1  0
 21 17  1  0
 16 22  2  0
 22 23  1  0
 23 14  1  0
 23 24  2  0
 24  5  1  0
  4 25  1  0
 25 26  1  0
 26 27  1  1
 26 28  1  0
 28  2  1  0
M  END
> <assay_chembl_id>
CHEMBL4051860

> <assay_description>
Antiproliferative activity against PTEN deficient human LNCAP cells after 72 hrs by CCK-8 assay

> <document_journal>
J Med Chem

> <molecule_chembl_id>
CHEMBL4071083

> <standard_value>
210

> <IC50_uM>
0.21

> <Activity>
Yes

> <Canonical_Smiles>
C[C@@H]1CN(c2nc(N3CCOCC3)c3sc(-c4ccn[nH]4)cc3n2)C[C@H](C)O1

$$$$

  SciTegic03142313312D

 35 40  0  0  0  0            999 V2000
   -1.9666   -9.6054    0.0000 C   0  0
   -0.4666   -9.6111    0.0000 S   0  0
    0.2780  -10.9132    0.0000 O   0  0
   -1.2218  -10.9071    0.0000 O   0  0
    0.2883   -8.3139    0.0000 N   0  0
    1.7883   -8.3192    0.0000 C   0  0
    2.5428   -7.0227    0.0000 C   0  0
    1.7974   -5.7210    0.0000 N   0  0
    2.5497   -4.4224    0.0000 C   0  0
    1.8032   -3.1233    0.0000 C   0  0
    2.4133   -1.7530    0.0000 C   0  0
    1.2990   -0.7500    0.0000 C   0  0
    1.2990    0.7500    0.0000 N   0  0
    0.0000    1.5000    0.0000 C   0  0
    0.0000    3.0008    0.0000 C   0  0
   -1.3002    3.7488    0.0000 C   0  0
   -1.3026    5.2488    0.0000 C   0  0
   -0.0048    6.0009    0.0000 C   0  0
    1.2954    5.2529    0.0000 C   0  0
    2.7204    5.7187    0.0000 N   0  0
    3.6041    4.5066    0.0000 N   0  0
    2.7243    3.2917    0.0000 C   0  0
    1.2978    3.7529    0.0000 C   0  0
   -1.2990    0.7500    0.0000 N   0  0
   -1.2990   -0.7500    0.0000 C   0  0
   -2.5987   -1.5004    0.0000 N   0  0
   -3.8991   -0.7525    0.0000 C   0  0
   -5.1969   -1.5046    0.0000 C   0  0
   -5.1945   -3.0046    0.0000 O   0  0
   -3.8943   -3.7525    0.0000 C   0  0
   -2.5964   -3.0004    0.0000 C   0  0
    0.0000   -1.5000    0.0000 C   0  0
    0.3114   -2.9665    0.0000 S   0  0
    0.2973   -5.7159    0.0000 C   0  0
   -0.4572   -7.0123    0.0000 C   0  0
  1  2  1  0
  2  3  2  0
  2  4  2  0
  2  5  1  0
  5  6  1  0
  6  7  1  0
  7  8  1  0
  8  9  1  0
  9 10  1  0
 10 11  2  0
 11 12  1  0
 12 13  2  0
 13 14  1  0
 14 15  1  0
 15 16  2  0
 16 17  1  0
 17 18  2  0
 18 19  1  0
 19 20  1  0
 20 21  1  0
 21 22  2  0
 22 23  1  0
 23 15  1  0
 23 19  2  0
 14 24  2  0
 24 25  1  0
 25 26  1  0
 26 27  1  0
 27 28  1  0
 28 29  1  0
 29 30  1  0
 30 31  1  0
 31 26  1  0
 25 32  2  0
 32 12  1  0
 32 33  1  0
 33 10  1  0
  8 34  1  0
 34 35  1  0
 35  5  1  0
M  END
> <assay_chembl_id>
CHEMBL4051860

> <assay_description>
Antiproliferative activity against PTEN deficient human LNCAP cells after 72 hrs by CCK-8 assay

> <document_journal>
J Med Chem

> <molecule_chembl_id>
CHEMBL521851

> <standard_value>
340

> <IC50_uM>
0.34

> <Activity>
Yes

> <Canonical_Smiles>
CS(=O)(=O)N1CCN(Cc2cc3nc(-c4cccc5[nH]ncc45)nc(N4CCOCC4)c3s2)CC1

$$$$

  SciTegic03142313312D

 20 21  0  0  0  0            999 V2000
    3.1247   -2.0836    0.0000 C   0  0
    1.6332   -2.2426    0.0000 C   0  0
    0.7500   -1.0323    0.0000 N   0  0
    1.2135    0.3943    0.0000 C   0  0
    0.0000    1.2760    0.0000 C   0  0
   -1.2135    0.3943    0.0000 N   0  0
   -0.7500   -1.0323    0.0000 C   0  0
   -1.6332   -2.2426    0.0000 C   0  0
   -3.1255   -2.0835    0.0000 C   0  0
   -4.0102   -3.2959    0.0000 C   0  0
   -5.5026   -3.1369    0.0000 C   0  0
   -6.3873   -4.3492    0.0000 C   0  0
   -5.7796   -5.7206    0.0000 O   0  0
   -7.8796   -4.1902    0.0000 C   0  0
   -8.7643   -5.4026    0.0000 C   0  0
  -10.2567   -5.2435    0.0000 C   0  0
  -11.2426   -6.3571    0.0000 N   0  0
  -12.6107   -5.7422    0.0000 C   0  0
  -12.4487   -4.2510    0.0000 C   0  0
  -10.9804   -3.9442    0.0000 S   0  0
  1  2  1  0
  2  3  1  0
  3  4  1  0
  4  5  2  0
  5  6  1  0
  6  7  2  0
  7  3  1  0
  7  8  1  0
  8  9  2  0
  9 10  1  0
 10 11  2  0
 11 12  1  0
 12 13  2  0
 12 14  1  0
 14 15  2  0
 15 16  1  0
 16 17  2  0
 17 18  1  0
 18 19  2  0
 19 20  1  0
 20 16  1  0
M  END
> <assay_chembl_id>
CHEMBL4053656

> <assay_description>
Antiproliferative activity against human LNCAP cells after 3 days by WST-1 assay

> <document_journal>
Eur J Med Chem

> <molecule_chembl_id>
CHEMBL4076898

> <standard_value>
750

> <IC50_uM>
0.75

> <Activity>
Yes

> <Canonical_Smiles>
CCn1ccnc1/C=C/C=C/C(=O)/C=C/c1nccs1

$$$$

  SciTegic03142313312D

 21 22  0  0  0  0            999 V2000
    4.0097   -3.2952    0.0000 C   0  0
    3.1255   -2.0835    0.0000 C   0  0
    1.6332   -2.2426    0.0000 C   0  0
    0.7500   -1.0323    0.0000 N   0  0
    1.2135    0.3943    0.0000 C   0  0
    0.0000    1.2760    0.0000 C   0  0
   -1.2135    0.3943    0.0000 N   0  0
   -0.7500   -1.0323    0.0000 C   0  0
   -1.6332   -2.2426    0.0000 C   0  0
   -3.1255   -2.0835    0.0000 C   0  0
   -4.0102   -3.2959    0.0000 C   0  0
   -5.5026   -3.1369    0.0000 C   0  0
   -6.3873   -4.3492    0.0000 C   0  0
   -5.7796   -5.7206    0.0000 O   0  0
   -7.8796   -4.1902    0.0000 C   0  0
   -8.7643   -5.4026    0.0000 C   0  0
  -10.2567   -5.2435    0.0000 C   0  0
  -11.2426   -6.3571    0.0000 N   0  0
  -12.6107   -5.7422    0.0000 C   0  0
  -12.4487   -4.2510    0.0000 C   0  0
  -10.9804   -3.9442    0.0000 S   0  0
  1  2  1  0
  2  3  1  0
  3  4  1  0
  4  5  1  0
  5  6  2  0
  6  7  1  0
  7  8  2  0
  8  4  1  0
  8  9  1  0
  9 10  2  0
 10 11  1  0
 11 12  2  0
 12 13  1  0
 13 14  2  0
 13 15  1  0
 15 16  2  0
 16 17  1  0
 17 18  2  0
 18 19  1  0
 19 20  2  0
 20 21  1  0
 21 17  1  0
M  END
> <assay_chembl_id>
CHEMBL4053656

> <assay_description>
Antiproliferative activity against human LNCAP cells after 3 days by WST-1 assay

> <document_journal>
Eur J Med Chem

> <molecule_chembl_id>
CHEMBL4066242

> <standard_value>
580

> <IC50_uM>
0.58

> <Activity>
Yes

> <Canonical_Smiles>
CCCn1ccnc1/C=C/C=C/C(=O)/C=C/c1nccs1

$$$$

  SciTegic03142313312D

 21 22  0  0  0  0            999 V2000
    3.1247   -2.0836    0.0000 C   0  0
    1.6332   -2.2426    0.0000 C   0  0
    1.0255   -3.6140    0.0000 C   0  0
    0.7500   -1.0323    0.0000 N   0  0
    1.2135    0.3943    0.0000 C   0  0
    0.0000    1.2760    0.0000 C   0  0
   -1.2135    0.3943    0.0000 N   0  0
   -0.7500   -1.0323    0.0000 C   0  0
   -1.6332   -2.2426    0.0000 C   0  0
   -3.1255   -2.0835    0.0000 C   0  0
   -4.0102   -3.2959    0.0000 C   0  0
   -5.5026   -3.1369    0.0000 C   0  0
   -6.3873   -4.3492    0.0000 C   0  0
   -5.7796   -5.7206    0.0000 O   0  0
   -7.8796   -4.1902    0.0000 C   0  0
   -8.7643   -5.4026    0.0000 C   0  0
  -10.2567   -5.2435    0.0000 C   0  0
  -11.2426   -6.3571    0.0000 N   0  0
  -12.6107   -5.7422    0.0000 C   0  0
  -12.4487   -4.2510    0.0000 C   0  0
  -10.9804   -3.9442    0.0000 S   0  0
  1  2  1  0
  2  3  1  0
  2  4  1  0
  4  5  1  0
  5  6  2  0
  6  7  1  0
  7  8  2  0
  8  4  1  0
  8  9  1  0
  9 10  2  0
 10 11  1  0
 11 12  2  0
 12 13  1  0
 13 14  2  0
 13 15  1  0
 15 16  2  0
 16 17  1  0
 17 18  2  0
 18 19  1  0
 19 20  2  0
 20 21  1  0
 21 17  1  0
M  END
> <assay_chembl_id>
CHEMBL4053656

> <assay_description>
Antiproliferative activity against human LNCAP cells after 3 days by WST-1 assay

> <document_journal>
Eur J Med Chem

> <molecule_chembl_id>
CHEMBL4088318

> <standard_value>
730

> <IC50_uM>
0.73

> <Activity>
Yes

> <Canonical_Smiles>
CC(C)n1ccnc1/C=C/C=C/C(=O)/C=C/c1nccs1

$$$$

  SciTegic03142313312D

 22 23  0  0  0  0            999 V2000
    4.0097   -3.2952    0.0000 C   0  0
    3.1255   -2.0835    0.0000 C   0  0
    1.6332   -2.2426    0.0000 C   0  0  3  0  0  0
    1.0255   -3.6140    0.0000 C   0  0
    0.7500   -1.0323    0.0000 N   0  0
    1.2135    0.3943    0.0000 C   0  0
    0.0000    1.2760    0.0000 C   0  0
   -1.2135    0.3943    0.0000 N   0  0
   -0.7500   -1.0323    0.0000 C   0  0
   -1.6332   -2.2426    0.0000 C   0  0
   -3.1255   -2.0835    0.0000 C   0  0
   -4.0102   -3.2959    0.0000 C   0  0
   -5.5026   -3.1369    0.0000 C   0  0
   -6.3873   -4.3492    0.0000 C   0  0
   -5.7796   -5.7206    0.0000 O   0  0
   -7.8796   -4.1902    0.0000 C   0  0
   -8.7643   -5.4026    0.0000 C   0  0
  -10.2567   -5.2435    0.0000 C   0  0
  -11.2426   -6.3571    0.0000 N   0  0
  -12.6107   -5.7422    0.0000 C   0  0
  -12.4487   -4.2510    0.0000 C   0  0
  -10.9804   -3.9442    0.0000 S   0  0
  1  2  1  0
  2  3  1  0
  3  4  1  4
  3  5  1  0
  5  6  1  0
  6  7  2  0
  7  8  1  0
  8  9  2  0
  9  5  1  0
  9 10  1  0
 10 11  2  0
 11 12  1  0
 12 13  2  0
 13 14  1  0
 14 15  2  0
 14 16  1  0
 16 17  2  0
 17 18  1  0
 18 19  2  0
 19 20  1  0
 20 21  2  0
 21 22  1  0
 22 18  1  0
M  END
> <assay_chembl_id>
CHEMBL4053656

> <assay_description>
Antiproliferative activity against human LNCAP cells after 3 days by WST-1 assay

> <document_journal>
Eur J Med Chem

> <molecule_chembl_id>
CHEMBL4094378

> <standard_value>
540

> <IC50_uM>
0.54

> <Activity>
Yes

> <Canonical_Smiles>
CCC(C)n1ccnc1/C=C/C=C/C(=O)/C=C/c1nccs1

$$$$

  SciTegic03142313312D

 20 21  0  0  0  0            999 V2000
    3.1247   -2.0836    0.0000 C   0  0
    1.6332   -2.2426    0.0000 C   0  0
    0.7500   -1.0323    0.0000 N   0  0
    1.2135    0.3943    0.0000 C   0  0
    0.0000    1.2760    0.0000 C   0  0
   -1.2135    0.3943    0.0000 N   0  0
   -0.7500   -1.0323    0.0000 C   0  0
   -1.6332   -2.2426    0.0000 C   0  0
   -3.1255   -2.0835    0.0000 C   0  0
   -4.0102   -3.2959    0.0000 C   0  0
   -3.4025   -4.6673    0.0000 O   0  0
   -5.5026   -3.1369    0.0000 C   0  0
   -6.3873   -4.3492    0.0000 C   0  0
   -7.8796   -4.1902    0.0000 C   0  0
   -8.7643   -5.4026    0.0000 C   0  0
  -10.2567   -5.2435    0.0000 C   0  0
  -11.2426   -6.3571    0.0000 N   0  0
  -12.6107   -5.7422    0.0000 C   0  0
  -12.4487   -4.2510    0.0000 C   0  0
  -10.9804   -3.9442    0.0000 S   0  0
  1  2  1  0
  2  3  1  0
  3  4  1  0
  4  5  2  0
  5  6  1  0
  6  7  2  0
  7  3  1  0
  7  8  1  0
  8  9  2  0
  9 10  1  0
 10 11  2  0
 10 12  1  0
 12 13  2  0
 13 14  1  0
 14 15  2  0
 15 16  1  0
 16 17  2  0
 17 18  1  0
 18 19  2  0
 19 20  1  0
 20 16  1  0
M  END
> <assay_chembl_id>
CHEMBL4053656

> <assay_description>
Antiproliferative activity against human LNCAP cells after 3 days by WST-1 assay

> <document_journal>
Eur J Med Chem

> <molecule_chembl_id>
CHEMBL4102117

> <standard_value>
420

> <IC50_uM>
0.42

> <Activity>
Yes

> <Canonical_Smiles>
CCn1ccnc1/C=C/C(=O)/C=C/C=C/c1nccs1

$$$$

  SciTegic03142313312D

 21 22  0  0  0  0            999 V2000
    4.0097   -3.2952    0.0000 C   0  0
    3.1255   -2.0835    0.0000 C   0  0
    1.6332   -2.2426    0.0000 C   0  0
    0.7500   -1.0323    0.0000 N   0  0
    1.2135    0.3943    0.0000 C   0  0
    0.0000    1.2760    0.0000 C   0  0
   -1.2135    0.3943    0.0000 N   0  0
   -0.7500   -1.0323    0.0000 C   0  0
   -1.6332   -2.2426    0.0000 C   0  0
   -3.1255   -2.0835    0.0000 C   0  0
   -4.0102   -3.2959    0.0000 C   0  0
   -3.4025   -4.6673    0.0000 O   0  0
   -5.5026   -3.1369    0.0000 C   0  0
   -6.3873   -4.3492    0.0000 C   0  0
   -7.8796   -4.1902    0.0000 C   0  0
   -8.7643   -5.4026    0.0000 C   0  0
  -10.2567   -5.2435    0.0000 C   0  0
  -11.2426   -6.3571    0.0000 N   0  0
  -12.6107   -5.7422    0.0000 C   0  0
  -12.4487   -4.2510    0.0000 C   0  0
  -10.9804   -3.9442    0.0000 S   0  0
  1  2  1  0
  2  3  1  0
  3  4  1  0
  4  5  1  0
  5  6  2  0
  6  7  1  0
  7  8  2  0
  8  4  1  0
  8  9  1  0
  9 10  2  0
 10 11  1  0
 11 12  2  0
 11 13  1  0
 13 14  2  0
 14 15  1  0
 15 16  2  0
 16 17  1  0
 17 18  2  0
 18 19  1  0
 19 20  2  0
 20 21  1  0
 21 17  1  0
M  END
> <assay_chembl_id>
CHEMBL4053656

> <assay_description>
Antiproliferative activity against human LNCAP cells after 3 days by WST-1 assay

> <document_journal>
Eur J Med Chem

> <molecule_chembl_id>
CHEMBL4077861

> <standard_value>
670

> <IC50_uM>
0.67

> <Activity>
Yes

> <Canonical_Smiles>
CCCn1ccnc1/C=C/C(=O)/C=C/C=C/c1nccs1

$$$$

  SciTegic03142313312D

 22 23  0  0  0  0            999 V2000
   10.2352  -11.1643    0.0000 C   0  0
    9.1177  -10.1637    0.0000 C   0  0
    9.4260   -8.6957    0.0000 C   0  0
    7.6938  -10.6297    0.0000 N   0  0
    7.2254  -12.0546    0.0000 C   0  0
    5.7254  -12.0494    0.0000 C   0  0
    5.2668  -10.6212    0.0000 N   0  0
    6.4833   -9.7656    0.0000 C   0  0
    6.4855   -8.2648    0.0000 C   0  0
    5.1873   -7.5117    0.0000 C   0  0
    5.1894   -6.0109    0.0000 C   0  0
    6.4897   -5.2632    0.0000 O   0  0
    3.8912   -5.2578    0.0000 C   0  0
    3.8933   -3.7570    0.0000 C   0  0
    2.5951   -3.0039    0.0000 C   0  0
    2.5973   -1.5031    0.0000 C   0  0
    1.2990   -0.7500    0.0000 C   0  0
    1.2990    0.7500    0.0000 C   0  0
    0.0000    1.5000    0.0000 C   0  0
   -1.2990    0.7500    0.0000 C   0  0
   -1.2990   -0.7500    0.0000 C   0  0
    0.0000   -1.5000    0.0000 N   0  0
  1  2  1  0
  2  3  1  0
  2  4  1  0
  4  5  1  0
  5  6  2  0
  6  7  1  0
  7  8  2  0
  8  4  1  0
  8  9  1  0
  9 10  2  0
 10 11  1  0
 11 12  2  0
 11 13  1  0
 13 14  2  0
 14 15  1  0
 15 16  2  0
 16 17  1  0
 17 18  2  0
 18 19  1  0
 19 20  2  0
 20 21  1  0
 21 22  2  0
 22 17  1  0
M  END
> <assay_chembl_id>
CHEMBL4053656

> <assay_description>
Antiproliferative activity against human LNCAP cells after 3 days by WST-1 assay

> <document_journal>
Eur J Med Chem

> <molecule_chembl_id>
CHEMBL4086636

> <standard_value>
660

> <IC50_uM>
0.66

> <Activity>
Yes

> <Canonical_Smiles>
CC(C)n1ccnc1/C=C/C(=O)/C=C/C=C/c1ccccn1

$$$$

  SciTegic03142313312D

 26 27  0  0  0  0            999 V2000
    1.6317   -2.2458    0.0000 C   0  0
    0.7500   -1.0323    0.0000 C   0  0
    1.2135    0.3943    0.0000 N   0  0
    0.0000    1.2760    0.0000 C   0  0
    0.0000    2.7742    0.0000 C   0  0
    1.2985    3.5251    0.0000 F   0  0
   -1.2993    3.5238    0.0000 F   0  0
   -0.0007    4.2742    0.0000 F   0  0
   -1.2135    0.3943    0.0000 C   0  0
   -2.6394    0.8543    0.0000 C   0  0
   -3.7533   -0.1515    0.0000 C   0  0
   -5.1816    0.3093    0.0000 C   0  0
   -6.2955   -0.6966    0.0000 C   0  0
   -7.7238   -0.2358    0.0000 C   0  0
   -8.0383    1.2309    0.0000 O   0  0
   -8.8377   -1.2416    0.0000 C   0  0
  -10.2660   -0.7808    0.0000 C   0  0
  -11.3799   -1.7867    0.0000 C   0  0
  -11.2017   -3.2633    0.0000 N   0  0
  -12.5699   -3.8782    0.0000 C   0  0
  -13.5775   -2.7670    0.0000 C   0  0
  -12.8320   -1.4653    0.0000 N   0  0
  -13.4385   -0.0954    0.0000 C   0  0
  -14.9299    0.0656    0.0000 C   0  0
  -12.5539    1.1160    0.0000 C   0  0
   -0.7500   -1.0323    0.0000 S   0  0
  1  2  1  0
  2  3  2  0
  3  4  1  0
  4  5  1  0
  5  6  1  0
  5  7  1  0
  5  8  1  0
  4  9  2  0
  9 10  1  0
 10 11  2  0
 11 12  1  0
 12 13  2  0
 13 14  1  0
 14 15  2  0
 14 16  1  0
 16 17  2  0
 17 18  1  0
 18 19  2  0
 19 20  1  0
 20 21  2  0
 21 22  1  0
 22 18  1  0
 22 23  1  0
 23 24  1  0
 23 25  1  0
  9 26  1  0
 26  2  1  0
M  END
> <assay_chembl_id>
CHEMBL4053656

> <assay_description>
Antiproliferative activity against human LNCAP cells after 3 days by WST-1 assay

> <document_journal>
Eur J Med Chem

> <molecule_chembl_id>
CHEMBL4104530

> <standard_value>
410

> <IC50_uM>
0.41

> <Activity>
Yes

> <Canonical_Smiles>
Cc1nc(C(F)(F)F)c(/C=C/C=C/C(=O)/C=C/c2nccn2C(C)C)s1

$$$$

  SciTegic03142313312D

 22 23  0  0  0  0            999 V2000
    4.0097   -3.2952    0.0000 C   0  0
    3.1255   -2.0835    0.0000 C   0  0
    1.6332   -2.2426    0.0000 C   0  0  3  0  0  0
    1.0255   -3.6140    0.0000 C   0  0
    0.7500   -1.0323    0.0000 N   0  0
    1.2135    0.3943    0.0000 C   0  0
    0.0000    1.2760    0.0000 C   0  0
   -1.2135    0.3943    0.0000 N   0  0
   -0.7500   -1.0323    0.0000 C   0  0
   -1.6332   -2.2426    0.0000 C   0  0
   -3.1255   -2.0835    0.0000 C   0  0
   -4.0102   -3.2959    0.0000 C   0  0
   -3.4025   -4.6673    0.0000 O   0  0
   -5.5026   -3.1369    0.0000 C   0  0
   -6.3873   -4.3492    0.0000 C   0  0
   -7.8796   -4.1902    0.0000 C   0  0
   -8.7643   -5.4026    0.0000 C   0  0
  -10.2567   -5.2435    0.0000 C   0  0
  -11.2426   -6.3571    0.0000 N   0  0
  -12.6107   -5.7422    0.0000 C   0  0
  -12.4487   -4.2510    0.0000 C   0  0
  -10.9804   -3.9442    0.0000 S   0  0
  1  2  1  0
  2  3  1  0
  3  4  1  4
  3  5  1  0
  5  6  1  0
  6  7  2  0
  7  8  1  0
  8  9  2  0
  9  5  1  0
  9 10  1  0
 10 11  2  0
 11 12  1  0
 12 13  2  0
 12 14  1  0
 14 15  2  0
 15 16  1  0
 16 17  2  0
 17 18  1  0
 18 19  2  0
 19 20  1  0
 20 21  2  0
 21 22  1  0
 22 18  1  0
M  END
> <assay_chembl_id>
CHEMBL4053656

> <assay_description>
Antiproliferative activity against human LNCAP cells after 3 days by WST-1 assay

> <document_journal>
Eur J Med Chem

> <molecule_chembl_id>
CHEMBL4104463

> <standard_value>
740

> <IC50_uM>
0.74

> <Activity>
Yes

> <Canonical_Smiles>
CCC(C)n1ccnc1/C=C/C(=O)/C=C/C=C/c1nccs1

$$$$

  SciTegic03142313312D

 23 24  0  0  0  0            999 V2000
    5.5018   -3.1369    0.0000 C   0  0
    4.0102   -3.2959    0.0000 C   0  0
    3.1255   -2.0835    0.0000 C   0  0
    1.6332   -2.2426    0.0000 C   0  0  3  0  0  0
    1.0255   -3.6140    0.0000 C   0  0
    0.7500   -1.0323    0.0000 N   0  0
    1.2135    0.3943    0.0000 C   0  0
    0.0000    1.2760    0.0000 C   0  0
   -1.2135    0.3943    0.0000 N   0  0
   -0.7500   -1.0323    0.0000 C   0  0
   -1.6332   -2.2426    0.0000 C   0  0
   -3.1255   -2.0835    0.0000 C   0  0
   -4.0102   -3.2959    0.0000 C   0  0
   -3.4025   -4.6673    0.0000 O   0  0
   -5.5026   -3.1369    0.0000 C   0  0
   -6.3873   -4.3492    0.0000 C   0  0
   -7.8796   -4.1902    0.0000 C   0  0
   -8.7643   -5.4026    0.0000 C   0  0
  -10.2567   -5.2435    0.0000 C   0  0
  -11.2426   -6.3571    0.0000 N   0  0
  -12.6107   -5.7422    0.0000 C   0  0
  -12.4487   -4.2510    0.0000 C   0  0
  -10.9804   -3.9442    0.0000 S   0  0
  1  2  1  0
  2  3  1  0
  3  4  1  0
  4  5  1  4
  4  6  1  0
  6  7  1  0
  7  8  2  0
  8  9  1  0
  9 10  2  0
 10  6  1  0
 10 11  1  0
 11 12  2  0
 12 13  1  0
 13 14  2  0
 13 15  1  0
 15 16  2  0
 16 17  1  0
 17 18  2  0
 18 19  1  0
 19 20  2  0
 20 21  1  0
 21 22  2  0
 22 23  1  0
 23 19  1  0
M  END
> <assay_chembl_id>
CHEMBL4053656

> <assay_description>
Antiproliferative activity against human LNCAP cells after 3 days by WST-1 assay

> <document_journal>
Eur J Med Chem

> <molecule_chembl_id>
CHEMBL4065086

> <standard_value>
690

> <IC50_uM>
0.69

> <Activity>
Yes

> <Canonical_Smiles>
CCCC(C)n1ccnc1/C=C/C(=O)/C=C/C=C/c1nccs1

$$$$

  SciTegic03142313312D

 24 25  0  0  0  0            999 V2000
   12.7797  -11.6985    0.0000 C   0  0
   11.6622  -10.6979    0.0000 C   0  0
   10.2359  -11.1648    0.0000 C   0  0
    9.1177  -10.1637    0.0000 C   0  0  3  0  0  0
    9.4260   -8.6957    0.0000 C   0  0
    7.6938  -10.6297    0.0000 N   0  0
    7.2254  -12.0546    0.0000 C   0  0
    5.7254  -12.0494    0.0000 C   0  0
    5.2668  -10.6212    0.0000 N   0  0
    6.4833   -9.7656    0.0000 C   0  0
    6.4855   -8.2648    0.0000 C   0  0
    5.1873   -7.5117    0.0000 C   0  0
    5.1894   -6.0109    0.0000 C   0  0
    6.4897   -5.2632    0.0000 O   0  0
    3.8912   -5.2578    0.0000 C   0  0
    3.8933   -3.7570    0.0000 C   0  0
    2.5951   -3.0039    0.0000 C   0  0
    2.5973   -1.5031    0.0000 C   0  0
    1.2990   -0.7500    0.0000 C   0  0
    1.2990    0.7500    0.0000 C   0  0
    0.0000    1.5000    0.0000 C   0  0
   -1.2990    0.7500    0.0000 C   0  0
   -1.2990   -0.7500    0.0000 C   0  0
    0.0000   -1.5000    0.0000 N   0  0
  1  2  1  0
  2  3  1  0
  3  4  1  0
  4  5  1  4
  4  6  1  0
  6  7  1  0
  7  8  2  0
  8  9  1  0
  9 10  2  0
 10  6  1  0
 10 11  1  0
 11 12  2  0
 12 13  1  0
 13 14  2  0
 13 15  1  0
 15 16  2  0
 16 17  1  0
 17 18  2  0
 18 19  1  0
 19 20  2  0
 20 21  1  0
 21 22  2  0
 22 23  1  0
 23 24  2  0
 24 19  1  0
M  END
> <assay_chembl_id>
CHEMBL4053656

> <assay_description>
Antiproliferative activity against human LNCAP cells after 3 days by WST-1 assay

> <document_journal>
Eur J Med Chem

> <molecule_chembl_id>
CHEMBL4076566

> <standard_value>
550

> <IC50_uM>
0.55

> <Activity>
Yes

> <Canonical_Smiles>
CCCC(C)n1ccnc1/C=C/C(=O)/C=C/C=C/c1ccccn1

$$$$

  SciTegic03142313312D

 21 22  0  0  0  0            999 V2000
   10.2352  -11.1643    0.0000 C   0  0
    9.1177  -10.1637    0.0000 C   0  0
    7.6938  -10.6297    0.0000 N   0  0
    7.2254  -12.0546    0.0000 C   0  0
    5.7254  -12.0494    0.0000 C   0  0
    5.2668  -10.6212    0.0000 N   0  0
    6.4833   -9.7656    0.0000 C   0  0
    6.4855   -8.2648    0.0000 C   0  0
    5.1873   -7.5117    0.0000 C   0  0
    5.1894   -6.0109    0.0000 C   0  0
    3.8912   -5.2578    0.0000 C   0  0
    3.8933   -3.7570    0.0000 C   0  0
    5.1937   -3.0093    0.0000 O   0  0
    2.5951   -3.0039    0.0000 C   0  0
    2.5973   -1.5031    0.0000 C   0  0
    1.2990   -0.7500    0.0000 C   0  0
    1.2990    0.7500    0.0000 C   0  0
    0.0000    1.5000    0.0000 C   0  0
   -1.2990    0.7500    0.0000 C   0  0
   -1.2990   -0.7500    0.0000 C   0  0
    0.0000   -1.5000    0.0000 N   0  0
  1  2  1  0
  2  3  1  0
  3  4  1  0
  4  5  2  0
  5  6  1  0
  6  7  2  0
  7  3  1  0
  7  8  1  0
  8  9  2  0
  9 10  1  0
 10 11  2  0
 11 12  1  0
 12 13  2  0
 12 14  1  0
 14 15  2  0
 15 16  1  0
 16 17  2  0
 17 18  1  0
 18 19  2  0
 19 20  1  0
 20 21  2  0
 21 16  1  0
M  END
> <assay_chembl_id>
CHEMBL4053656

> <assay_description>
Antiproliferative activity against human LNCAP cells after 3 days by WST-1 assay

> <document_journal>
Eur J Med Chem

> <molecule_chembl_id>
CHEMBL4072615

> <standard_value>
370

> <IC50_uM>
0.37

> <Activity>
Yes

> <Canonical_Smiles>
CCn1ccnc1/C=C/C=C/C(=O)/C=C/c1ccccn1

$$$$

  SciTegic03142313312D

 22 23  0  0  0  0            999 V2000
   10.2352  -11.1643    0.0000 C   0  0
    9.1177  -10.1637    0.0000 C   0  0
    9.4260   -8.6957    0.0000 C   0  0
    7.6938  -10.6297    0.0000 N   0  0
    7.2254  -12.0546    0.0000 C   0  0
    5.7254  -12.0494    0.0000 C   0  0
    5.2668  -10.6212    0.0000 N   0  0
    6.4833   -9.7656    0.0000 C   0  0
    6.4855   -8.2648    0.0000 C   0  0
    5.1873   -7.5117    0.0000 C   0  0
    5.1894   -6.0109    0.0000 C   0  0
    3.8912   -5.2578    0.0000 C   0  0
    3.8933   -3.7570    0.0000 C   0  0
    5.1937   -3.0093    0.0000 O   0  0
    2.5951   -3.0039    0.0000 C   0  0
    2.5973   -1.5031    0.0000 C   0  0
    1.2990   -0.7500    0.0000 C   0  0
    1.2990    0.7500    0.0000 C   0  0
    0.0000    1.5000    0.0000 C   0  0
   -1.2990    0.7500    0.0000 C   0  0
   -1.2990   -0.7500    0.0000 C   0  0
    0.0000   -1.5000    0.0000 N   0  0
  1  2  1  0
  2  3  1  0
  2  4  1  0
  4  5  1  0
  5  6  2  0
  6  7  1  0
  7  8  2  0
  8  4  1  0
  8  9  1  0
  9 10  2  0
 10 11  1  0
 11 12  2  0
 12 13  1  0
 13 14  2  0
 13 15  1  0
 15 16  2  0
 16 17  1  0
 17 18  2  0
 18 19  1  0
 19 20  2  0
 20 21  1  0
 21 22  2  0
 22 17  1  0
M  END
> <assay_chembl_id>
CHEMBL4053656

> <assay_description>
Antiproliferative activity against human LNCAP cells after 3 days by WST-1 assay

> <document_journal>
Eur J Med Chem

> <molecule_chembl_id>
CHEMBL4074414

> <standard_value>
380

> <IC50_uM>
0.38

> <Activity>
Yes

> <Canonical_Smiles>
CC(C)n1ccnc1/C=C/C=C/C(=O)/C=C/c1ccccn1

$$$$

  SciTegic03142313312D

 23 24  0  0  0  0            999 V2000
   11.6614  -10.6982    0.0000 C   0  0
   10.2359  -11.1648    0.0000 C   0  0
    9.1177  -10.1637    0.0000 C   0  0  3  0  0  0
    9.4260   -8.6957    0.0000 C   0  0
    7.6938  -10.6297    0.0000 N   0  0
    7.2254  -12.0546    0.0000 C   0  0
    5.7254  -12.0494    0.0000 C   0  0
    5.2668  -10.6212    0.0000 N   0  0
    6.4833   -9.7656    0.0000 C   0  0
    6.4855   -8.2648    0.0000 C   0  0
    5.1873   -7.5117    0.0000 C   0  0
    5.1894   -6.0109    0.0000 C   0  0
    3.8912   -5.2578    0.0000 C   0  0
    3.8933   -3.7570    0.0000 C   0  0
    5.1937   -3.0093    0.0000 O   0  0
    2.5951   -3.0039    0.0000 C   0  0
    2.5973   -1.5031    0.0000 C   0  0
    1.2990   -0.7500    0.0000 C   0  0
    1.2990    0.7500    0.0000 C   0  0
    0.0000    1.5000    0.0000 C   0  0
   -1.2990    0.7500    0.0000 C   0  0
   -1.2990   -0.7500    0.0000 C   0  0
    0.0000   -1.5000    0.0000 N   0  0
  1  2  1  0
  2  3  1  0
  3  4  1  4
  3  5  1  0
  5  6  1  0
  6  7  2  0
  7  8  1  0
  8  9  2  0
  9  5  1  0
  9 10  1  0
 10 11  2  0
 11 12  1  0
 12 13  2  0
 13 14  1  0
 14 15  2  0
 14 16  1  0
 16 17  2  0
 17 18  1  0
 18 19  2  0
 19 20  1  0
 20 21  2  0
 21 22  1  0
 22 23  2  0
 23 18  1  0
M  END
> <assay_chembl_id>
CHEMBL4053656

> <assay_description>
Antiproliferative activity against human LNCAP cells after 3 days by WST-1 assay

> <document_journal>
Eur J Med Chem

> <molecule_chembl_id>
CHEMBL4098154

> <standard_value>
280

> <IC50_uM>
0.28

> <Activity>
Yes

> <Canonical_Smiles>
CCC(C)n1ccnc1/C=C/C=C/C(=O)/C=C/c1ccccn1

$$$$

  SciTegic03142313312D

 24 25  0  0  0  0            999 V2000
   12.7797  -11.6985    0.0000 C   0  0
   11.6622  -10.6979    0.0000 C   0  0
   10.2359  -11.1648    0.0000 C   0  0
    9.1177  -10.1637    0.0000 C   0  0  3  0  0  0
    9.4260   -8.6957    0.0000 C   0  0
    7.6938  -10.6297    0.0000 N   0  0
    7.2254  -12.0546    0.0000 C   0  0
    5.7254  -12.0494    0.0000 C   0  0
    5.2668  -10.6212    0.0000 N   0  0
    6.4833   -9.7656    0.0000 C   0  0
    6.4855   -8.2648    0.0000 C   0  0
    5.1873   -7.5117    0.0000 C   0  0
    5.1894   -6.0109    0.0000 C   0  0
    3.8912   -5.2578    0.0000 C   0  0
    3.8933   -3.7570    0.0000 C   0  0
    5.1937   -3.0093    0.0000 O   0  0
    2.5951   -3.0039    0.0000 C   0  0
    2.5973   -1.5031    0.0000 C   0  0
    1.2990   -0.7500    0.0000 C   0  0
    1.2990    0.7500    0.0000 C   0  0
    0.0000    1.5000    0.0000 C   0  0
   -1.2990    0.7500    0.0000 C   0  0
   -1.2990   -0.7500    0.0000 C   0  0
    0.0000   -1.5000    0.0000 N   0  0
  1  2  1  0
  2  3  1  0
  3  4  1  0
  4  5  1  4
  4  6  1  0
  6  7  1  0
  7  8  2  0
  8  9  1  0
  9 10  2  0
 10  6  1  0
 10 11  1  0
 11 12  2  0
 12 13  1  0
 13 14  2  0
 14 15  1  0
 15 16  2  0
 15 17  1  0
 17 18  2  0
 18 19  1  0
 19 20  2  0
 20 21  1  0
 21 22  2  0
 22 23  1  0
 23 24  2  0
 24 19  1  0
M  END
> <assay_chembl_id>
CHEMBL4053656

> <assay_description>
Antiproliferative activity against human LNCAP cells after 3 days by WST-1 assay

> <document_journal>
Eur J Med Chem

> <molecule_chembl_id>
CHEMBL4065705

> <standard_value>
380

> <IC50_uM>
0.38

> <Activity>
Yes

> <Canonical_Smiles>
CCCC(C)n1ccnc1/C=C/C=C/C(=O)/C=C/c1ccccn1

$$$$

  SciTegic03142313312D

 30 32  0  0  0  0            999 V2000
   14.3119   -6.6612    0.0000 C   0  0
   13.1014   -7.5472    0.0000 C   0  0
   13.1067   -9.0472    0.0000 N   0  0
   11.6817   -9.5157    0.0000 C   0  0
   11.2128  -10.9386    0.0000 C   0  0
   12.2111  -12.0581    0.0000 F   0  0
    9.7442  -11.2438    0.0000 F   0  0
   10.7426  -12.3630    0.0000 F   0  0
   10.8177   -8.3052    0.0000 C   0  0
    9.3169   -8.3073    0.0000 C   0  0
    8.5637   -7.0091    0.0000 C   0  0
    7.0629   -7.0113    0.0000 C   0  0
    6.3098   -5.7131    0.0000 C   0  0
    4.8090   -5.7153    0.0000 C   0  0
    4.0613   -7.0156    0.0000 O   0  0
    4.0559   -4.4171    0.0000 C   0  0
    2.5551   -4.4192    0.0000 C   0  0
    1.8032   -3.1233    0.0000 C   0  0
    2.4133   -1.7530    0.0000 N   0  0
    1.2990   -0.7500    0.0000 C   0  0
    1.2990    0.7500    0.0000 C   0  0
    0.0000    1.5000    0.0000 C   0  0
   -1.2990    0.7500    0.0000 C   0  0
   -1.2990   -0.7500    0.0000 C   0  0
    0.0000   -1.5000    0.0000 C   0  0
    0.3114   -2.9665    0.0000 N   0  0
   -0.6890   -4.0818    0.0000 C   0  0
   -0.2237   -5.5078    0.0000 C   0  0
   -2.1567   -3.7722    0.0000 C   0  0
   11.6733   -7.0886    0.0000 S   0  0
  1  2  1  0
  2  3  2  0
  3  4  1  0
  4  5  1  0
  5  6  1  0
  5  7  1  0
  5  8  1  0
  4  9  2  0
  9 10  1  0
 10 11  2  0
 11 12  1  0
 12 13  2  0
 13 14  1  0
 14 15  2  0
 14 16  1  0
 16 17  2  0
 17 18  1  0
 18 19  2  0
 19 20  1  0
 20 21  2  0
 21 22  1  0
 22 23  2  0
 23 24  1  0
 24 25  2  0
 25 20  1  0
 25 26  1  0
 26 18  1  0
 26 27  1  0
 27 28  1  0
 27 29  1  0
  9 30  1  0
 30  2  1  0
M  END
> <assay_chembl_id>
CHEMBL4053656

> <assay_description>
Antiproliferative activity against human LNCAP cells after 3 days by WST-1 assay

> <document_journal>
Eur J Med Chem

> <molecule_chembl_id>
CHEMBL4090481

> <standard_value>
350

> <IC50_uM>
0.35

> <Activity>
Yes

> <Canonical_Smiles>
Cc1nc(C(F)(F)F)c(/C=C/C=C/C(=O)/C=C/c2nc3ccccc3n2C(C)C)s1

$$$$

  SciTegic03142313312D

 25 27  0  0  0  0            999 V2000
   -0.2237   -5.5078    0.0000 C   0  0
   -0.6890   -4.0818    0.0000 C   0  0
   -2.1567   -3.7722    0.0000 C   0  0
    0.3114   -2.9665    0.0000 N   0  0
    1.8032   -3.1233    0.0000 C   0  0
    2.5551   -4.4192    0.0000 C   0  0
    4.0559   -4.4171    0.0000 C   0  0
    4.8090   -5.7153    0.0000 C   0  0
    4.0613   -7.0156    0.0000 O   0  0
    6.3098   -5.7131    0.0000 C   0  0
    7.0629   -7.0113    0.0000 C   0  0
    8.5638   -7.0091    0.0000 C   0  0
    9.3169   -8.3073    0.0000 C   0  0
   10.8177   -8.3051    0.0000 C   0  0
   11.6818   -9.5156    0.0000 N   0  0
   13.1067   -9.0471    0.0000 C   0  0
   13.1015   -7.5471    0.0000 C   0  0
   11.6733   -7.0886    0.0000 S   0  0
    2.4133   -1.7530    0.0000 N   0  0
    1.2990   -0.7500    0.0000 C   0  0
    1.2990    0.7500    0.0000 C   0  0
    0.0000    1.5000    0.0000 C   0  0
   -1.2990    0.7500    0.0000 C   0  0
   -1.2990   -0.7500    0.0000 C   0  0
    0.0000   -1.5000    0.0000 C   0  0
  1  2  1  0
  2  3  1  0
  2  4  1  0
  4  5  1  0
  5  6  1  0
  6  7  2  0
  7  8  1  0
  8  9  2  0
  8 10  1  0
 10 11  2  0
 11 12  1  0
 12 13  2  0
 13 14  1  0
 14 15  2  0
 15 16  1  0
 16 17  2  0
 17 18  1  0
 18 14  1  0
  5 19  2  0
 19 20  1  0
 20 21  2  0
 21 22  1  0
 22 23  2  0
 23 24  1  0
 24 25  2  0
 25 20  1  0
 25  4  1  0
M  END
> <assay_chembl_id>
CHEMBL4053656

> <assay_description>
Antiproliferative activity against human LNCAP cells after 3 days by WST-1 assay

> <document_journal>
Eur J Med Chem

> <molecule_chembl_id>
CHEMBL4098134

> <standard_value>
270

> <IC50_uM>
0.27

> <Activity>
Yes

> <Canonical_Smiles>
CC(C)n1c(/C=C/C(=O)/C=C/C=C/c2nccs2)nc2ccccc21

$$$$

  SciTegic03142313312D

 28 30  0  0  0  0            999 V2000
   12.2164  -12.0570    0.0000 C   0  0
   11.2158  -10.9395    0.0000 C   0  0
    9.7478  -11.2478    0.0000 C   0  0
   11.6817   -9.5157    0.0000 N   0  0
   13.1067   -9.0471    0.0000 C   0  0
   13.1014   -7.5472    0.0000 C   0  0
   11.6733   -7.0886    0.0000 N   0  0
   10.8177   -8.3052    0.0000 C   0  0
    9.3169   -8.3073    0.0000 C   0  0
    8.5637   -7.0091    0.0000 C   0  0
    7.0629   -7.0113    0.0000 C   0  0
    6.3098   -5.7131    0.0000 C   0  0
    4.8090   -5.7153    0.0000 C   0  0
    4.0613   -7.0156    0.0000 O   0  0
    4.0559   -4.4171    0.0000 C   0  0
    2.5551   -4.4192    0.0000 C   0  0
    1.8032   -3.1233    0.0000 C   0  0
    2.4133   -1.7530    0.0000 N   0  0
    1.2990   -0.7500    0.0000 C   0  0
    1.2990    0.7500    0.0000 C   0  0
    0.0000    1.5000    0.0000 C   0  0
   -1.2990    0.7500    0.0000 C   0  0
   -1.2990   -0.7500    0.0000 C   0  0
    0.0000   -1.5000    0.0000 C   0  0
    0.3114   -2.9665    0.0000 N   0  0
   -0.6890   -4.0818    0.0000 C   0  0
   -0.2237   -5.5078    0.0000 C   0  0
   -2.1567   -3.7722    0.0000 C   0  0
  1  2  1  0
  2  3  1  0
  2  4  1  0
  4  5  1  0
  5  6  2  0
  6  7  1  0
  7  8  2  0
  8  4  1  0
  8  9  1  0
  9 10  2  0
 10 11  1  0
 11 12  2  0
 12 13  1  0
 13 14  2  0
 13 15  1  0
 15 16  2  0
 16 17  1  0
 17 18  2  0
 18 19  1  0
 19 20  2  0
 20 21  1  0
 21 22  2  0
 22 23  1  0
 23 24  2  0
 24 19  1  0
 24 25  1  0
 25 17  1  0
 25 26  1  0
 26 27  1  0
 26 28  1  0
M  END
> <assay_chembl_id>
CHEMBL4053656

> <assay_description>
Antiproliferative activity against human LNCAP cells after 3 days by WST-1 assay

> <document_journal>
Eur J Med Chem

> <molecule_chembl_id>
CHEMBL4079389

> <standard_value>
600

> <IC50_uM>
0.6

> <Activity>
Yes

> <Canonical_Smiles>
CC(C)n1ccnc1/C=C/C=C/C(=O)/C=C/c1nc2ccccc2n1C(C)C

$$$$

  SciTegic03142313312D

 30 32  0  0  0  0            999 V2000
   11.7503  -13.4832    0.0000 C   0  0
   12.2169  -12.0577    0.0000 C   0  0
   11.2158  -10.9395    0.0000 C   0  0  3  0  0  0
    9.7478  -11.2478    0.0000 C   0  0
   11.6817   -9.5157    0.0000 N   0  0
   13.1067   -9.0471    0.0000 C   0  0
   13.1014   -7.5472    0.0000 C   0  0
   11.6733   -7.0886    0.0000 N   0  0
   10.8177   -8.3052    0.0000 C   0  0
    9.3169   -8.3073    0.0000 C   0  0
    8.5637   -7.0091    0.0000 C   0  0
    7.0629   -7.0113    0.0000 C   0  0
    6.3098   -5.7131    0.0000 C   0  0
    4.8090   -5.7153    0.0000 C   0  0
    4.0613   -7.0156    0.0000 O   0  0
    4.0559   -4.4171    0.0000 C   0  0
    2.5551   -4.4192    0.0000 C   0  0
    1.8032   -3.1233    0.0000 C   0  0
    2.4133   -1.7530    0.0000 N   0  0
    1.2990   -0.7500    0.0000 C   0  0
    1.2990    0.7500    0.0000 C   0  0
    0.0000    1.5000    0.0000 C   0  0
   -1.2990    0.7500    0.0000 C   0  0
   -1.2990   -0.7500    0.0000 C   0  0
    0.0000   -1.5000    0.0000 C   0  0
    0.3114   -2.9665    0.0000 N   0  0
   -0.6890   -4.0818    0.0000 C   0  0  3  0  0  0
   -2.1567   -3.7722    0.0000 C   0  0
   -0.2234   -5.5086    0.0000 C   0  0
   -1.2250   -6.6252    0.0000 C   0  0
  1  2  1  0
  2  3  1  0
  3  4  1  4
  3  5  1  0
  5  6  1  0
  6  7  2  0
  7  8  1  0
  8  9  2  0
  9  5  1  0
  9 10  1  0
 10 11  2  0
 11 12  1  0
 12 13  2  0
 13 14  1  0
 14 15  2  0
 14 16  1  0
 16 17  2  0
 17 18  1  0
 18 19  2  0
 19 20  1  0
 20 21  2  0
 21 22  1  0
 22 23  2  0
 23 24  1  0
 24 25  2  0
 25 20  1  0
 25 26  1  0
 26 18  1  0
 26 27  1  0
 27 28  1  4
 27 29  1  0
 29 30  1  0
M  END
> <assay_chembl_id>
CHEMBL4053656

> <assay_description>
Antiproliferative activity against human LNCAP cells after 3 days by WST-1 assay

> <document_journal>
Eur J Med Chem

> <molecule_chembl_id>
CHEMBL4086611

> <standard_value>
300

> <IC50_uM>
0.3

> <Activity>
Yes

> <Canonical_Smiles>
CCC(C)n1ccnc1/C=C/C=C/C(=O)/C=C/c1nc2ccccc2n1C(C)CC

$$$$

  SciTegic03142313312D

 32 34  0  0  0  0            999 V2000
   12.7507  -14.6015    0.0000 C   0  0
   11.7501  -13.4840    0.0000 C   0  0
   12.2169  -12.0577    0.0000 C   0  0
   11.2158  -10.9395    0.0000 C   0  0  3  0  0  0
    9.7478  -11.2478    0.0000 C   0  0
   11.6817   -9.5157    0.0000 N   0  0
   13.1067   -9.0471    0.0000 C   0  0
   13.1014   -7.5472    0.0000 C   0  0
   11.6733   -7.0886    0.0000 N   0  0
   10.8177   -8.3052    0.0000 C   0  0
    9.3169   -8.3073    0.0000 C   0  0
    8.5637   -7.0091    0.0000 C   0  0
    7.0629   -7.0113    0.0000 C   0  0
    6.3098   -5.7131    0.0000 C   0  0
    4.8090   -5.7153    0.0000 C   0  0
    4.0613   -7.0156    0.0000 O   0  0
    4.0559   -4.4171    0.0000 C   0  0
    2.5551   -4.4192    0.0000 C   0  0
    1.8032   -3.1233    0.0000 C   0  0
    2.4133   -1.7530    0.0000 N   0  0
    1.2990   -0.7500    0.0000 C   0  0
    1.2990    0.7500    0.0000 C   0  0
    0.0000    1.5000    0.0000 C   0  0
   -1.2990    0.7500    0.0000 C   0  0
   -1.2990   -0.7500    0.0000 C   0  0
    0.0000   -1.5000    0.0000 C   0  0
    0.3114   -2.9665    0.0000 N   0  0
   -0.6890   -4.0818    0.0000 C   0  0  3  0  0  0
   -2.1567   -3.7722    0.0000 C   0  0
   -0.2234   -5.5086    0.0000 C   0  0
   -1.2256   -6.6258    0.0000 C   0  0
   -0.7603   -8.0518    0.0000 C   0  0
  1  2  1  0
  2  3  1  0
  3  4  1  0
  4  5  1  4
  4  6  1  0
  6  7  1  0
  7  8  2  0
  8  9  1  0
  9 10  2  0
 10  6  1  0
 10 11  1  0
 11 12  2  0
 12 13  1  0
 13 14  2  0
 14 15  1  0
 15 16  2  0
 15 17  1  0
 17 18  2  0
 18 19  1  0
 19 20  2  0
 20 21  1  0
 21 22  2  0
 22 23  1  0
 23 24  2  0
 24 25  1  0
 25 26  2  0
 26 21  1  0
 26 27  1  0
 27 19  1  0
 27 28  1  0
 28 29  1  4
 28 30  1  0
 30 31  1  0
 31 32  1  0
M  END
> <assay_chembl_id>
CHEMBL4053656

> <assay_description>
Antiproliferative activity against human LNCAP cells after 3 days by WST-1 assay

> <document_journal>
Eur J Med Chem

> <molecule_chembl_id>
CHEMBL4075905

> <standard_value>
550

> <IC50_uM>
0.55

> <Activity>
Yes

> <Canonical_Smiles>
CCCC(C)n1ccnc1/C=C/C=C/C(=O)/C=C/c1nc2ccccc2n1C(C)CCC

$$$$

  SciTegic03142313312D

 32 34  0  0  0  0            999 V2000
   11.7503  -13.4832    0.0000 C   0  0
   12.2169  -12.0577    0.0000 C   0  0
   11.2158  -10.9395    0.0000 C   0  0
    9.7476  -11.2510    0.0000 C   0  0
    9.2826  -12.6771    0.0000 C   0  0
   11.6817   -9.5157    0.0000 N   0  0
   13.1067   -9.0471    0.0000 C   0  0
   13.1014   -7.5472    0.0000 C   0  0
   11.6733   -7.0886    0.0000 N   0  0
   10.8177   -8.3052    0.0000 C   0  0
    9.3169   -8.3073    0.0000 C   0  0
    8.5637   -7.0091    0.0000 C   0  0
    7.0629   -7.0113    0.0000 C   0  0
    6.3098   -5.7131    0.0000 C   0  0
    4.8090   -5.7153    0.0000 C   0  0
    4.0613   -7.0156    0.0000 O   0  0
    4.0559   -4.4171    0.0000 C   0  0
    2.5551   -4.4192    0.0000 C   0  0
    1.8032   -3.1233    0.0000 C   0  0
    2.4133   -1.7530    0.0000 N   0  0
    1.2990   -0.7500    0.0000 C   0  0
    1.2990    0.7500    0.0000 C   0  0
    0.0000    1.5000    0.0000 C   0  0
   -1.2990    0.7500    0.0000 C   0  0
   -1.2990   -0.7500    0.0000 C   0  0
    0.0000   -1.5000    0.0000 C   0  0
    0.3114   -2.9665    0.0000 N   0  0
   -0.6890   -4.0818    0.0000 C   0  0
   -0.2234   -5.5086    0.0000 C   0  0
   -1.2250   -6.6252    0.0000 C   0  0
   -2.1581   -3.7751    0.0000 C   0  0
   -3.1585   -4.8928    0.0000 C   0  0
  1  2  1  0
  2  3  1  0
  3  4  1  0
  4  5  1  0
  3  6  1  0
  6  7  1  0
  7  8  2  0
  8  9  1  0
  9 10  2  0
 10  6  1  0
 10 11  1  0
 11 12  2  0
 12 13  1  0
 13 14  2  0
 14 15  1  0
 15 16  2  0
 15 17  1  0
 17 18  2  0
 18 19  1  0
 19 20  2  0
 20 21  1  0
 21 22  2  0
 22 23  1  0
 23 24  2  0
 24 25  1  0
 25 26  2  0
 26 21  1  0
 26 27  1  0
 27 19  1  0
 27 28  1  0
 28 29  1  0
 29 30  1  0
 28 31  1  0
 31 32  1  0
M  END
> <assay_chembl_id>
CHEMBL4053656

> <assay_description>
Antiproliferative activity against human LNCAP cells after 3 days by WST-1 assay

> <document_journal>
Eur J Med Chem

> <molecule_chembl_id>
CHEMBL4087606

> <standard_value>
720

> <IC50_uM>
0.72

> <Activity>
Yes

> <Canonical_Smiles>
CCC(CC)n1ccnc1/C=C/C=C/C(=O)/C=C/c1nc2ccccc2n1C(CC)CC

$$$$

  SciTegic03142313312D

 37 42  0  0  1  0            999 V2000
    2.5981    0.0000    0.0000 C   0  0
    1.2990   -0.7500    0.0000 C   0  0  2  0  0  0
    1.2990    0.7500    0.0000 C   0  0
    0.0000    1.5000    0.0000 C   0  0
   -1.2990    0.7500    0.0000 C   0  0
   -2.5981    1.5000    0.0000 O   0  0
   -1.2990   -0.7500    0.0000 O   0  0
    0.0000   -1.5000    0.0000 C   0  0  2  0  0  0
    0.0000   -3.0000    0.0000 C   0  0
    1.2990   -3.7500    0.0000 C   0  0
    2.5981   -3.0000    0.0000 C   0  0  2  0  0  0
    2.5981   -1.5000    0.0000 C   0  0  2  0  0  0
    3.8971   -0.7500    0.0000 C   0  0
    5.1962   -1.5000    0.0000 C   0  0
    5.1962   -3.0000    0.0000 C   0  0  2  0  0  0
    6.5611   -2.3779    0.0000 C   0  0
    6.3238   -3.9802    0.0000 C   0  0  1  0  0  0
    7.7858   -3.6531    0.0000 C   0  0
    8.2336   -2.2215    0.0000 O   0  0
    8.8026   -4.7570    0.0000 N   0  0
   10.2676   -4.4310    0.0000 C   0  0
   10.7186   -2.9995    0.0000 C   0  0
   12.1823   -2.6715    0.0000 C   0  0
   12.6301   -1.2399    0.0000 C   0  0
   11.6143   -0.1362    0.0000 C   0  0
   10.1506   -0.4642    0.0000 C   0  0
    9.7027   -1.8958    0.0000 C   0  0
    8.3516   -6.1885    0.0000 C   0  0
    9.3650   -7.2954    0.0000 C   0  0
    8.9164   -8.7268    0.0000 C   0  0
    9.9315   -9.8311    0.0000 C   0  0
   11.3954   -9.5041    0.0000 C   0  0
   11.8442   -8.0728    0.0000 C   0  0
   10.8290   -6.9685    0.0000 C   0  0
    5.7224   -5.3544    0.0000 C   0  0
    4.2297   -5.2071    0.0000 C   0  0
    3.8971   -3.7500    0.0000 C   0  0  1  0  0  0
  2  1  1  1
  2  3  1  0
  3  4  1  0
  4  5  1  0
  5  6  2  0
  5  7  1  0
  8  7  1  1
  8  2  1  0
  8  9  1  0
  9 10  1  0
 11 10  1  6
 11 12  1  0
 12  2  1  0
 12 13  1  1
 13 14  1  0
 14 15  1  0
 15 16  1  1
 15 17  1  0
 17 18  1  1
 18 19  2  0
 18 20  1  0
 20 21  1  0
 21 22  1  0
 22 23  2  0
 23 24  1  0
 24 25  2  0
 25 26  1  0
 26 27  2  0
 27 22  1  0
 20 28  1  0
 28 29  1  0
 29 30  2  0
 30 31  1  0
 31 32  2  0
 32 33  1  0
 33 34  2  0
 34 29  1  0
 17 35  1  0
 35 36  1  0
 37 36  1  1
 37 11  1  0
 37 15  1  0
M  END
> <assay_chembl_id>
CHEMBL4058431

> <assay_description>
Cytotoxicity against human LNCAP cells after 48 hrs by MTT assay

> <document_journal>
Bioorg Med Chem Lett

> <molecule_chembl_id>
CHEMBL4076351

> <standard_value>
29780

> <IC50_uM>
29.78

> <Activity>
No

> <Canonical_Smiles>
C[C@]12CCC(=O)O[C@@H]1CC[C@@H]1[C@@H]2CC[C@]2(C)[C@@H](C(=O)N(Cc3ccccc3)Cc3ccccc3)CC[C@@H]12

$$$$

  SciTegic03142313312D

 31 34  0  0  1  0            999 V2000
   -1.4188  -10.5751    0.0000 C   0  0
   -1.8661   -9.1434    0.0000 C   0  0
   -0.8500   -8.0388    0.0000 C   0  0
   -1.2977   -6.6063    0.0000 C   0  0
   -0.2816   -5.5018    0.0000 N   0  0
    1.1823   -5.8329    0.0000 C   0  0
    1.6283   -7.2659    0.0000 C   0  0
    3.0921   -7.5971    0.0000 C   0  0
    3.5379   -9.0293    0.0000 C   0  0
   -0.7292   -4.0692    0.0000 C   0  0
   -2.1929   -3.7413    0.0000 O   0  0
    0.2851   -2.9666    0.0000 C   0  0  1  0  0  0
    1.7758   -3.1329    0.0000 C   0  0
    2.3947   -1.7666    0.0000 C   0  0
    1.2990   -0.7500    0.0000 C   0  0  1  0  0  0
    1.2990    0.7500    0.0000 C   0  0  2  0  0  0
    2.5981    1.5000    0.0000 C   0  0
    2.5981    3.0000    0.0000 C   0  0
    1.2990    3.7500    0.0000 C   0  0  1  0  0  0
    1.2990    5.2500    0.0000 O   0  0
    0.0000    6.0000    0.0000 C   0  0
   -0.0001    7.5000    0.0000 O   0  0
   -1.2991    5.2500    0.0000 C   0  0
   -1.2991    3.7500    0.0000 C   0  0
    0.0000    3.0000    0.0000 C   0  0  1  0  0  0
   -1.2991    2.2500    0.0000 C   0  0
    0.0000    1.5000    0.0000 C   0  0  1  0  0  0
   -1.2990    0.7500    0.0000 C   0  0
   -1.2990   -0.7500    0.0000 C   0  0
    0.0000   -1.5000    0.0000 C   0  0  2  0  0  0
   -1.2212   -2.3711    0.0000 C   0  0
  1  2  1  0
  2  3  1  0
  3  4  1  0
  4  5  1  0
  5  6  1  0
  6  7  1  0
  7  8  1  0
  8  9  1  0
  5 10  1  0
 10 11  2  0
 12 10  1  6
 12 13  1  0
 13 14  1  0
 15 14  1  6
 15 16  1  0
 16 17  1  1
 17 18  1  0
 19 18  1  6
 19 20  1  0
 20 21  1  0
 21 22  2  0
 21 23  1  0
 23 24  1  0
 24 25  1  0
 25 19  1  0
 25 26  1  6
 25 27  1  0
 27 16  1  0
 27 28  1  6
 28 29  1  0
 29 30  1  0
 30 12  1  0
 30 15  1  0
 30 31  1  6
M  END
> <assay_chembl_id>
CHEMBL4058431

> <assay_description>
Cytotoxicity against human LNCAP cells after 48 hrs by MTT assay

> <document_journal>
Bioorg Med Chem Lett

> <molecule_chembl_id>
CHEMBL4083721

> <standard_value>
32410

> <IC50_uM>
32.41

> <Activity>
No

> <Canonical_Smiles>
CCCCN(CCCC)C(=O)[C@H]1CC[C@H]2[C@@H]3CC[C@H]4OC(=O)CC[C@]4(C)[C@H]3CC[C@]12C

$$$$

  SciTegic03142313312D

 30 34  0  0  1  0            999 V2000
   -4.3511   -9.9120    0.0000 C   0  0
   -3.3333   -8.8101    0.0000 C   0  0
   -1.8702   -9.1406    0.0000 C   0  0
   -0.8524   -8.0387    0.0000 C   0  0
   -1.2977   -6.6063    0.0000 C   0  0
   -0.2816   -5.5018    0.0000 N   0  0
   -0.7292   -4.0692    0.0000 C   0  0
   -2.1929   -3.7413    0.0000 O   0  0
    0.2851   -2.9666    0.0000 C   0  0  1  0  0  0
    1.7758   -3.1329    0.0000 C   0  0
    2.3947   -1.7666    0.0000 C   0  0
    1.2990   -0.7500    0.0000 C   0  0  1  0  0  0
    1.2990    0.7500    0.0000 C   0  0  2  0  0  0
    2.5981    1.5000    0.0000 C   0  0
    2.5981    3.0000    0.0000 C   0  0
    1.2990    3.7500    0.0000 C   0  0  1  0  0  0
    1.2990    5.2500    0.0000 O   0  0
    0.0000    6.0000    0.0000 C   0  0
   -0.0001    7.5000    0.0000 O   0  0
   -1.2991    5.2500    0.0000 C   0  0
   -1.2991    3.7500    0.0000 C   0  0
    0.0000    3.0000    0.0000 C   0  0  1  0  0  0
   -1.2991    2.2500    0.0000 C   0  0
    0.0000    1.5000    0.0000 C   0  0  1  0  0  0
   -1.2990    0.7500    0.0000 C   0  0
   -1.2990   -0.7500    0.0000 C   0  0
    0.0000   -1.5000    0.0000 C   0  0  2  0  0  0
   -1.2212   -2.3711    0.0000 C   0  0
   -2.7609   -6.2759    0.0000 C   0  0
   -3.7787   -7.3777    0.0000 C   0  0
  1  2  1  0
  2  3  2  0
  3  4  1  0
  4  5  2  0
  5  6  1  0
  6  7  1  0
  7  8  2  0
  9  7  1  6
  9 10  1  0
 10 11  1  0
 12 11  1  6
 12 13  1  0
 13 14  1  1
 14 15  1  0
 16 15  1  6
 16 17  1  0
 17 18  1  0
 18 19  2  0
 18 20  1  0
 20 21  1  0
 21 22  1  0
 22 16  1  0
 22 23  1  6
 22 24  1  0
 24 13  1  0
 24 25  1  6
 25 26  1  0
 26 27  1  0
 27  9  1  0
 27 12  1  0
 27 28  1  6
  5 29  1  0
 29 30  2  0
 30  2  1  0
M  END
> <assay_chembl_id>
CHEMBL4058431

> <assay_description>
Cytotoxicity against human LNCAP cells after 48 hrs by MTT assay

> <document_journal>
Bioorg Med Chem Lett

> <molecule_chembl_id>
CHEMBL4061869

> <standard_value>
26470

> <IC50_uM>
26.47

> <Activity>
No

> <Canonical_Smiles>
Cc1ccc(NC(=O)[C@H]2CC[C@H]3[C@@H]4CC[C@H]5OC(=O)CC[C@]5(C)[C@H]4CC[C@]23C)cc1

$$$$

  SciTegic03142313312D

 58 63  0  0  1  0            999 V2000
    2.2495    2.6548    0.0000 C   0  0
    3.6576    2.1380    0.0000 C   0  0
    4.8089    3.0995    0.0000 O   0  0
    3.9139    0.6592    0.0000 O   0  0
    2.7600   -0.3100    0.0000 C   0  0  1  0  0  0
    3.4900    0.9500    0.0000 C   0  0
    4.7600    0.2300    0.0000 O   0  0
    4.0400   -1.0400    0.0000 C   0  0  2  0  0  0
    4.0400   -2.4900    0.0000 C   0  0
    2.7600   -3.2200    0.0000 C   0  0  2  0  0  0
    2.7575   -4.7200    0.0000 O   0  0
    1.4900   -2.4900    0.0000 C   0  0  1  0  0  0
    1.4875   -3.9900    0.0000 C   0  0
    0.2100   -3.2200    0.0000 C   0  0
    0.2075   -4.7200    0.0000 O   0  0
   -1.0600   -2.4900    0.0000 C   0  0  2  0  0  0
   -1.0600   -1.4900    0.0000 O   0  0
   -2.3300   -3.2200    0.0000 C   0  0
   -3.6100   -2.4900    0.0000 C   0  0
   -4.9070   -3.2434    0.0000 C   0  0
   -3.6100   -1.0400    0.0000 C   0  0  1  0  0  0
   -4.9128   -0.2943    0.0000 O   0  0
   -6.2102   -1.0489    0.0000 C   0  0
   -6.2067   -2.0488    0.0000 O   0  0
   -7.5128   -0.3034    0.0000 C   0  0  2  0  0  0
   -7.5181    1.1966    0.0000 O   0  0
   -8.8101   -1.0580    0.0000 C   0  0  1  0  0  0
   -8.8018   -2.5588    0.0000 N   0  0
   -7.4983   -3.3028    0.0000 C   0  0
   -6.6350   -2.7982    0.0000 O   0  0
   -7.4900   -4.8036    0.0000 O   0  0
   -6.1865   -5.5476    0.0000 C   0  0
   -6.1782   -7.0475    0.0000 C   0  0
   -4.8915   -4.7908    0.0000 C   0  0
   -4.8835   -6.2905    0.0000 C   0  0
  -10.1128   -0.3126    0.0000 C   0  0
  -11.4105   -1.0648    0.0000 C   0  0
  -12.7109   -0.3172    0.0000 C   0  0
  -12.7136    1.1828    0.0000 C   0  0
  -11.4159    1.9352    0.0000 C   0  0
  -10.1155    1.1875    0.0000 C   0  0
   -2.3300   -0.3100    0.0000 C   0  0
   -1.0600   -1.0400    0.0000 C   0  0  1  0  0  0
   -1.0600    0.4600    0.0000 O   0  0
    0.2100   -0.3100    0.0000 C   0  0  1  0  0  0
    0.2020    1.1912    0.0000 O   0  0
   -1.1014    1.9354    0.0000 C   0  0
   -2.3966    1.1788    0.0000 O   0  0
   -1.1094    3.4362    0.0000 C   0  0
   -2.4110    4.1820    0.0000 C   0  0
   -2.4160    5.6819    0.0000 C   0  0
   -1.1195    6.4363    0.0000 C   0  0
    0.1820    5.6907    0.0000 C   0  0
    0.1871    4.1907    0.0000 C   0  0
    1.4900   -1.0400    0.0000 C   0  0  2  0  0  0
   -2.0200    0.2800    0.0000 C   0  0
   -0.9882    1.3687    0.0000 C   0  0
   -3.4648    0.6831    0.0000 C   0  0
  1  2  1  0
  2  3  2  0
  2  4  1  0
  5  4  1  1
  5  6  1  0
  6  7  1  0
  8  7  1  6
  8  5  1  0
  8  9  1  0
  9 10  1  0
 10 11  1  6
 10 12  1  0
 12 13  1  6
 12 14  1  0
 14 15  2  0
 14 16  1  0
 16 17  1  1
 16 18  1  0
 18 19  2  0
 19 20  1  0
 19 21  1  0
 21 22  1  1
 22 23  1  0
 23 24  2  0
 23 25  1  0
 25 26  1  1
 25 27  1  0
 27 28  1  1
 28 29  1  0
 29 30  2  0
 29 31  1  0
 31 32  1  0
 32 33  1  0
 32 34  1  0
 32 35  1  0
 27 36  1  0
 36 37  2  0
 37 38  1  0
 38 39  2  0
 39 40  1  0
 40 41  2  0
 41 36  1  0
 21 42  1  0
 42 43  1  0
 43 44  1  1
 43 45  1  0
 45 46  1  1
 46 47  1  0
 47 48  2  0
 47 49  1  0
 49 50  2  0
 50 51  1  0
 51 52  2  0
 52 53  1  0
 53 54  2  0
 54 49  1  0
 55 45  1  6
 55  5  1  0
 55 12  1  0
 43 56  1  0
 56 18  1  0
 56 57  1  0
 56 58  1  0
M  END
> <assay_chembl_id>
CHEMBL4123803

> <assay_description>
Antiproliferative activity against docetaxel-sensitive human LNCAP cells after 3 days by WST-1 assay

> <document_journal>
Bioorg Med Chem

> <molecule_chembl_id>
CHEMBL92

> <standard_value>
0.2

> <IC50_uM>
0.0002

> <Activity>
Yes

> <Canonical_Smiles>
CC(=O)O[C@@]12CO[C@@H]1C[C@H](O)[C@@]1(C)C(=O)[C@H](O)C3=C(C)[C@@H](OC(=O)[C@H](O)[C@@H](NC(=O)OC(C)(C)C)c4ccccc4)C[C@@](O)([C@@H](OC(=O)c4ccccc4)[C@H]21)C3(C)C

$$$$

  SciTegic03142313312D

 46 50  0  0  1  0            999 V2000
    3.6776   -3.9199    0.0000 C   0  0
    3.2342   -2.4869    0.0000 O   0  0
    1.7710   -2.1532    0.0000 C   0  0
    0.7513   -3.2533    0.0000 O   0  0
    1.2990   -0.7500    0.0000 C   0  0  2  0  0  0
    2.5793    0.0316    0.0000 C   0  0
    1.2990    0.7500    0.0000 C   0  0
    0.0000    1.5000    0.0000 C   0  0
   -1.2990    0.7500    0.0000 C   0  0
   -1.2990   -0.7500    0.0000 C   0  0  2  0  0  0
   -2.5981    0.0000    0.0000 C   0  0
   -2.5981   -1.5000    0.0000 C   0  0
   -3.8971   -0.7500    0.0000 C   0  0
   -5.1962   -1.5000    0.0000 C   0  0
   -5.1961   -3.0000    0.0000 C   0  0
   -6.4974   -3.7478    0.0000 C   0  0
   -7.7954   -2.9960    0.0000 C   0  0
   -6.4992   -4.7478    0.0000 C   0  0
   -3.8971   -3.7500    0.0000 C   0  0
   -3.9002   -5.2509    0.0000 N   0  0
   -5.2010   -5.9994    0.0000 C   0  0
   -6.0661   -5.4979    0.0000 O   0  0
   -5.2041   -7.5002    0.0000 C   0  0
   -6.5049   -8.2488    0.0000 N   0  0
   -6.6479   -9.7292    0.0000 C   0  0
   -8.1162  -10.0359    0.0000 C   0  0
   -8.7313  -11.4048    0.0000 C   0  0
   -7.9497  -12.6793    0.0000 C   0  0
   -8.6658  -13.9973    0.0000 C   0  0
  -10.1653  -14.0362    0.0000 C   0  0
  -10.9487  -12.7571    0.0000 C   0  0
  -12.4491  -12.7929    0.0000 N   0  0
  -13.2312  -11.5119    0.0000 C   0  0
  -12.5128  -10.1951    0.0000 O   0  0
  -14.7316  -11.5478    0.0000 O   0  0
  -15.5136  -10.2668    0.0000 C   0  0
  -17.0132  -10.3026    0.0000 C   0  0
  -16.2946   -8.9862    0.0000 C   0  0
  -14.7953   -8.9500    0.0000 C   0  0
  -10.2327  -11.4390    0.0000 C   0  0
   -8.8617   -8.7343    0.0000 N   0  0
   -7.8541   -7.6231    0.0000 N   0  0
   -2.5981   -3.0000    0.0000 C   0  0
   -1.2990   -3.7500    0.0000 C   0  0
    0.0000   -3.0000    0.0000 C   0  0
    0.0000   -1.5000    0.0000 C   0  0  1  0  0  0
  1  2  1  0
  2  3  1  0
  3  4  2  0
  3  5  1  0
  5  6  1  6
  5  7  1  0
  7  8  1  0
  8  9  1  0
  9 10  1  0
 10 11  1  6
 10 12  1  0
 12 13  2  0
 13 14  1  0
 14 15  2  0
 15 16  1  0
 16 17  1  0
 16 18  1  0
 15 19  1  0
 19 20  1  0
 20 21  1  0
 21 22  2  0
 21 23  1  0
 23 24  1  0
 24 25  1  0
 25 26  2  0
 26 27  1  0
 27 28  2  0
 28 29  1  0
 29 30  2  0
 30 31  1  0
 31 32  1  0
 32 33  1  0
 33 34  2  0
 33 35  1  0
 35 36  1  0
 36 37  1  0
 36 38  1  0
 36 39  1  0
 31 40  2  0
 40 27  1  0
 26 41  1  0
 41 42  2  0
 42 24  1  0
 19 43  2  0
 43 12  1  0
 43 44  1  0
 44 45  1  0
 46 45  1  6
 46  5  1  0
 46 10  1  0
M  END
> <assay_chembl_id>
CHEMBL4132069

> <assay_description>
Cytotoxicity against human LNCAP cells assessed as reduction in cell viability after 72 hrs by MTT assay

> <document_journal>
Eur J Med Chem

> <molecule_chembl_id>
CHEMBL4160194

> <standard_value>
600

> <IC50_uM>
0.6

> <Activity>
Yes

> <Canonical_Smiles>
COC(=O)[C@]1(C)CCC[C@]2(C)c3ccc(C(C)C)c(NC(=O)Cn4cc(-c5cccc(NC(=O)OC(C)(C)C)c5)nn4)c3CC[C@@H]12

$$$$

  SciTegic03142313312D

 27 30  0  0  0  0            999 V2000
    5.1496   -9.8296    0.0000 N   0  0
    4.4995   -8.4778    0.0000 C   0  0
    3.8490   -7.1253    0.0000 C   0  0
    4.6946   -5.8864    0.0000 C   0  0
    4.0445   -4.5346    0.0000 C   0  0
    2.5536   -4.4230    0.0000 C   0  0
    1.8032   -3.1233    0.0000 N   0  0
    2.4133   -1.7530    0.0000 C   0  0
    3.8805   -1.4410    0.0000 O   0  0
    1.2990   -0.7500    0.0000 C   0  0  3  0  0  0
    1.2990    0.7500    0.0000 C   0  0
    0.0000    1.5000    0.0000 C   0  0
    0.0000    3.0000    0.0000 C   0  0
   -1.2991    3.7500    0.0000 C   0  0
   -2.5981    3.0000    0.0000 C   0  0
   -2.5981    1.5000    0.0000 C   0  0
   -1.2990    0.7500    0.0000 C   0  0
   -1.2990   -0.7500    0.0000 C   0  0
    0.0000   -1.5000    0.0000 N   0  0
    0.3114   -2.9665    0.0000 C   0  0
   -0.6923   -4.0811    0.0000 S   0  0
    1.7031   -5.6606    0.0000 C   0  0
    2.3532   -7.0124    0.0000 C   0  0
    1.5071   -8.2520    0.0000 C   0  0
    0.0113   -8.1401    0.0000 F   0  0
    2.1577   -9.6036    0.0000 F   0  0
    0.6621   -9.4913    0.0000 F   0  0
  1  2  3  0
  2  3  1  0
  3  4  2  0
  4  5  1  0
  5  6  2  0
  6  7  1  0
  7  8  1  0
  8  9  2  0
  8 10  1  0
 10 11  1  4
 11 12  1  0
 12 13  2  0
 13 14  1  0
 14 15  2  0
 15 16  1  0
 16 17  2  0
 17 12  1  0
 17 18  1  0
 18 19  1  0
 19 10  1  0
 19 20  1  0
 20  7  1  0
 20 21  2  0
  6 22  1  0
 22 23  2  0
 23  3  1  0
 23 24  1  0
 24 25  1  0
 24 26  1  0
 24 27  1  0
M  END
> <assay_chembl_id>
CHEMBL4141635

> <assay_description>
Antiproliferative activity against human LNCAP cells after 3 days by MTT assay

> <document_journal>
Eur J Med Chem

> <molecule_chembl_id>
CHEMBL4159370

> <standard_value>
31100

> <IC50_uM>
31.1

> <Activity>
No

> <Canonical_Smiles>
N#Cc1ccc(N2C(=O)C3Cc4ccccc4CN3C2=S)cc1C(F)(F)F

$$$$

  SciTegic03142313312D

 28 31  0  0  0  0            999 V2000
    2.6640   -0.1280    0.0000 C   0  0
    1.2990   -0.7500    0.0000 C   0  0  3  0  0  0
    1.2990    0.7500    0.0000 C   0  0
    0.0000    1.5000    0.0000 C   0  0
    0.0000    3.0000    0.0000 C   0  0
   -1.2991    3.7500    0.0000 C   0  0
   -2.5981    3.0000    0.0000 C   0  0
   -2.5981    1.5000    0.0000 C   0  0
   -1.2990    0.7500    0.0000 C   0  0
   -1.2990   -0.7500    0.0000 C   0  0
    0.0000   -1.5000    0.0000 N   0  0
    0.3326   -2.9571    0.0000 C   0  0
   -0.6592   -4.0825    0.0000 S   0  0
    1.8253   -3.1044    0.0000 N   0  0
    2.5840   -4.3992    0.0000 C   0  0
    1.9438   -5.7503    0.0000 C   0  0
    2.7974   -6.9838    0.0000 C   0  0
    4.2924   -6.8613    0.0000 C   0  0
    5.1463   -8.0955    0.0000 C   0  0
    5.9999   -9.3290    0.0000 N   0  0
    4.9338   -5.5054    0.0000 C   0  0
    6.4296   -5.3829    0.0000 C   0  0
    7.2839   -6.6159    0.0000 F   0  0
    7.0707   -4.0268    0.0000 F   0  0
    7.9246   -5.2598    0.0000 F   0  0
    4.0803   -4.2719    0.0000 C   0  0
    2.4266   -1.7302    0.0000 C   0  0
    3.8900   -1.4008    0.0000 O   0  0
  2  1  1  4
  2  3  1  0
  3  4  1  0
  4  5  2  0
  5  6  1  0
  6  7  2  0
  7  8  1  0
  8  9  2  0
  9  4  1  0
  9 10  1  0
 10 11  1  0
 11  2  1  0
 11 12  1  0
 12 13  2  0
 12 14  1  0
 14 15  1  0
 15 16  2  0
 16 17  1  0
 17 18  2  0
 18 19  1  0
 19 20  3  0
 18 21  1  0
 21 22  1  0
 22 23  1  0
 22 24  1  0
 22 25  1  0
 21 26  2  0
 26 15  1  0
 14 27  1  0
 27  2  1  0
 27 28  2  0
M  END
> <assay_chembl_id>
CHEMBL4141635

> <assay_description>
Antiproliferative activity against human LNCAP cells after 3 days by MTT assay

> <document_journal>
Eur J Med Chem

> <molecule_chembl_id>
CHEMBL4175560

> <standard_value>
65300

> <IC50_uM>
65.3

> <Activity>
No

> <Canonical_Smiles>
CC12Cc3ccccc3CN1C(=S)N(c1ccc(C#N)c(C(F)(F)F)c1)C2=O

$$$$

  SciTegic03142313312D

 24 27  0  0  0  0            999 V2000
    5.1496   -9.8296    0.0000 N   0  0
    4.4995   -8.4778    0.0000 C   0  0
    3.8490   -7.1253    0.0000 C   0  0
    4.6946   -5.8864    0.0000 C   0  0
    4.0445   -4.5346    0.0000 C   0  0
    2.5536   -4.4230    0.0000 C   0  0
    1.8032   -3.1233    0.0000 N   0  0
    2.4133   -1.7530    0.0000 C   0  0
    3.8805   -1.4410    0.0000 O   0  0
    1.2990   -0.7500    0.0000 C   0  0  3  0  0  0
    1.2990    0.7500    0.0000 C   0  0
    0.0000    1.5000    0.0000 C   0  0
    0.0000    3.0000    0.0000 C   0  0
   -1.2991    3.7500    0.0000 C   0  0
   -2.5981    3.0000    0.0000 C   0  0
   -2.5981    1.5000    0.0000 C   0  0
   -1.2990    0.7500    0.0000 C   0  0
   -1.2990   -0.7500    0.0000 C   0  0
    0.0000   -1.5000    0.0000 N   0  0
    0.3114   -2.9665    0.0000 C   0  0
   -0.6923   -4.0811    0.0000 S   0  0
    1.7031   -5.6606    0.0000 C   0  0
    2.3532   -7.0124    0.0000 C   0  0
    1.5076   -8.2513    0.0000 F   0  0
  1  2  3  0
  2  3  1  0
  3  4  2  0
  4  5  1  0
  5  6  2  0
  6  7  1  0
  7  8  1  0
  8  9  2  0
  8 10  1  0
 10 11  1  4
 11 12  1  0
 12 13  2  0
 13 14  1  0
 14 15  2  0
 15 16  1  0
 16 17  2  0
 17 12  1  0
 17 18  1  0
 18 19  1  0
 19 10  1  0
 19 20  1  0
 20  7  1  0
 20 21  2  0
  6 22  1  0
 22 23  2  0
 23  3  1  0
 23 24  1  0
M  END
> <assay_chembl_id>
CHEMBL4141635

> <assay_description>
Antiproliferative activity against human LNCAP cells after 3 days by MTT assay

> <document_journal>
Eur J Med Chem

> <molecule_chembl_id>
CHEMBL4167689

> <standard_value>
70300

> <IC50_uM>
70.3

> <Activity>
No

> <Canonical_Smiles>
N#Cc1ccc(N2C(=O)C3Cc4ccccc4CN3C2=S)cc1F

$$$$

  SciTegic03142313312D

 32 35  0  0  0  0            999 V2000
    5.1996   -1.4928    0.0000 C   0  0
    3.8990   -0.7455    0.0000 N   0  0
    2.6003   -1.4977    0.0000 C   0  0
    2.6030   -2.9977    0.0000 O   0  0
    1.2990   -0.7500    0.0000 C   0  0
    1.2990    0.7500    0.0000 C   0  0
    0.0000    1.5000    0.0000 C   0  0
   -1.2990    0.7500    0.0000 C   0  0
   -1.2990   -0.7500    0.0000 C   0  0
    0.0000   -1.5000    0.0000 C   0  0
    0.0000   -3.0000    0.0000 F   0  0
   -2.5981    1.5000    0.0000 C   0  0
   -2.5981    3.0000    0.0000 C   0  0  3  0  0  0
   -3.7124    4.0030    0.0000 C   0  0
   -5.1796    3.6910    0.0000 O   0  0
   -3.1023    5.3733    0.0000 N   0  0
   -3.8527    6.6730    0.0000 C   0  0
   -5.3435    6.7846    0.0000 C   0  0
   -5.9937    8.1363    0.0000 C   0  0
   -5.1480    9.3753    0.0000 C   0  0
   -5.7985   10.7278    0.0000 C   0  0
   -6.4487   12.0796    0.0000 N   0  0
   -3.6523    9.2624    0.0000 C   0  0
   -2.8062   10.5020    0.0000 C   0  0
   -3.4555   11.8542    0.0000 F   0  0
   -1.3105   10.3887    0.0000 F   0  0
   -1.9600   11.7405    0.0000 F   0  0
   -3.0022    7.9106    0.0000 C   0  0
   -1.6105    5.2165    0.0000 C   0  0
   -0.6067    6.3311    0.0000 S   0  0
   -1.2991    3.7500    0.0000 N   0  0
    0.0000    3.0000    0.0000 C   0  0
  1  2  1  0
  2  3  1  0
  3  4  2  0
  3  5  1  0
  5  6  2  0
  6  7  1  0
  7  8  2  0
  8  9  1  0
  9 10  2  0
 10  5  1  0
 10 11  1  0
  8 12  1  0
 13 12  1  4
 13 14  1  0
 14 15  2  0
 14 16  1  0
 16 17  1  0
 17 18  2  0
 18 19  1  0
 19 20  2  0
 20 21  1  0
 21 22  3  0
 20 23  1  0
 23 24  1  0
 24 25  1  0
 24 26  1  0
 24 27  1  0
 23 28  2  0
 28 17  1  0
 16 29  1  0
 29 30  2  0
 29 31  1  0
 31 13  1  0
 31 32  1  0
 32  7  1  0
M  END
> <assay_chembl_id>
CHEMBL4141635

> <assay_description>
Antiproliferative activity against human LNCAP cells after 3 days by MTT assay

> <document_journal>
Eur J Med Chem

> <molecule_chembl_id>
CHEMBL4173847

> <standard_value>
28100

> <IC50_uM>
28.1

> <Activity>
No

> <Canonical_Smiles>
CNC(=O)c1cc2c(cc1F)CC1C(=O)N(c3ccc(C#N)c(C(F)(F)F)c3)C(=S)N1C2

$$$$

  SciTegic03142313312D

 28 31  0  0  0  0            999 V2000
    5.1496   -9.8296    0.0000 N   0  0
    4.4995   -8.4778    0.0000 C   0  0
    3.8490   -7.1253    0.0000 C   0  0
    4.6946   -5.8864    0.0000 C   0  0
    4.0445   -4.5346    0.0000 C   0  0
    2.5536   -4.4230    0.0000 C   0  0
    1.8032   -3.1233    0.0000 N   0  0
    2.4133   -1.7530    0.0000 C   0  0
    3.8805   -1.4410    0.0000 O   0  0
    1.2990   -0.7500    0.0000 C   0  0  3  0  0  0
    1.2990    0.7500    0.0000 C   0  0
    0.0000    1.5000    0.0000 C   0  0
    0.0000    3.0000    0.0000 C   0  0
   -1.2991    3.7500    0.0000 C   0  0
   -2.5981    3.0000    0.0000 C   0  0
   -3.8971    3.7500    0.0000 O   0  0
   -2.5981    1.5000    0.0000 C   0  0
   -1.2990    0.7500    0.0000 C   0  0
   -1.2990   -0.7500    0.0000 C   0  0
    0.0000   -1.5000    0.0000 N   0  0
    0.3114   -2.9665    0.0000 C   0  0
   -0.6923   -4.0811    0.0000 S   0  0
    1.7031   -5.6606    0.0000 C   0  0
    2.3532   -7.0124    0.0000 C   0  0
    1.5071   -8.2520    0.0000 C   0  0
    0.0113   -8.1401    0.0000 F   0  0
    2.1577   -9.6036    0.0000 F   0  0
    0.6621   -9.4913    0.0000 F   0  0
  1  2  3  0
  2  3  1  0
  3  4  2  0
  4  5  1  0
  5  6  2  0
  6  7  1  0
  7  8  1  0
  8  9  2  0
  8 10  1  0
 10 11  1  4
 11 12  1  0
 12 13  2  0
 13 14  1  0
 14 15  2  0
 15 16  1  0
 15 17  1  0
 17 18  2  0
 18 12  1  0
 18 19  1  0
 19 20  1  0
 20 10  1  0
 20 21  1  0
 21  7  1  0
 21 22  2  0
  6 23  1  0
 23 24  2  0
 24  3  1  0
 24 25  1  0
 25 26  1  0
 25 27  1  0
 25 28  1  0
M  END
> <assay_chembl_id>
CHEMBL4141635

> <assay_description>
Antiproliferative activity against human LNCAP cells after 3 days by MTT assay

> <document_journal>
Eur J Med Chem

> <molecule_chembl_id>
CHEMBL4163553

> <standard_value>
50700

> <IC50_uM>
50.7

> <Activity>
No

> <Canonical_Smiles>
N#Cc1ccc(N2C(=O)C3Cc4ccc(O)cc4CN3C2=S)cc1C(F)(F)F

$$$$

  SciTegic03142313312D

 30 33  0  0  0  0            999 V2000
    5.1496   -9.8296    0.0000 N   0  0
    4.4995   -8.4778    0.0000 C   0  0
    3.8490   -7.1253    0.0000 C   0  0
    4.6946   -5.8864    0.0000 C   0  0
    4.0445   -4.5346    0.0000 C   0  0
    2.5536   -4.4230    0.0000 C   0  0
    1.8032   -3.1233    0.0000 N   0  0
    2.4133   -1.7530    0.0000 C   0  0
    3.8805   -1.4410    0.0000 O   0  0
    1.2990   -0.7500    0.0000 C   0  0  3  0  0  0
    1.2990    0.7500    0.0000 C   0  0
    0.0000    1.5000    0.0000 C   0  0
    0.0000    3.0000    0.0000 C   0  0
   -1.2991    3.7500    0.0000 C   0  0
   -1.3022    5.2508    0.0000 N   0  3
   -2.6023    5.9990    0.0000 O   0  0
   -0.0044    6.0031    0.0000 O   0  5
   -2.5981    3.0000    0.0000 C   0  0
   -2.5981    1.5000    0.0000 C   0  0
   -1.2990    0.7500    0.0000 C   0  0
   -1.2990   -0.7500    0.0000 C   0  0
    0.0000   -1.5000    0.0000 N   0  0
    0.3114   -2.9665    0.0000 C   0  0
   -0.6923   -4.0811    0.0000 S   0  0
    1.7031   -5.6606    0.0000 C   0  0
    2.3532   -7.0124    0.0000 C   0  0
    1.5071   -8.2520    0.0000 C   0  0
    0.0113   -8.1401    0.0000 F   0  0
    2.1577   -9.6036    0.0000 F   0  0
    0.6621   -9.4913    0.0000 F   0  0
  1  2  3  0
  2  3  1  0
  3  4  2  0
  4  5  1  0
  5  6  2  0
  6  7  1  0
  7  8  1  0
  8  9  2  0
  8 10  1  0
 10 11  1  4
 11 12  1  0
 12 13  2  0
 13 14  1  0
 14 15  1  0
 15 16  2  0
 15 17  1  0
 14 18  2  0
 18 19  1  0
 19 20  2  0
 20 12  1  0
 20 21  1  0
 21 22  1  0
 22 10  1  0
 22 23  1  0
 23  7  1  0
 23 24  2  0
  6 25  1  0
 25 26  2  0
 26  3  1  0
 26 27  1  0
 27 28  1  0
 27 29  1  0
 27 30  1  0
M  CHG  2  15   1  17  -1
M  END
> <assay_chembl_id>
CHEMBL4141635

> <assay_description>
Antiproliferative activity against human LNCAP cells after 3 days by MTT assay

> <document_journal>
Eur J Med Chem

> <molecule_chembl_id>
CHEMBL4170819

> <standard_value>
56400

> <IC50_uM>
56.4

> <Activity>
No

> <Canonical_Smiles>
N#Cc1ccc(N2C(=O)C3Cc4cc([N+](=O)[O-])ccc4CN3C2=S)cc1C(F)(F)F

$$$$

  SciTegic03142313312D

 30 33  0  0  0  0            999 V2000
    5.1496   -9.8296    0.0000 N   0  0
    4.4995   -8.4778    0.0000 C   0  0
    3.8490   -7.1253    0.0000 C   0  0
    4.6946   -5.8864    0.0000 C   0  0
    4.0445   -4.5346    0.0000 C   0  0
    2.5536   -4.4230    0.0000 C   0  0
    1.8032   -3.1233    0.0000 N   0  0
    2.4133   -1.7530    0.0000 C   0  0
    3.8805   -1.4410    0.0000 O   0  0
    1.2990   -0.7500    0.0000 C   0  0  3  0  0  0
    1.2990    0.7500    0.0000 C   0  0
    0.0000    1.5000    0.0000 C   0  0
    0.0000    3.0000    0.0000 C   0  0
   -1.2991    3.7500    0.0000 C   0  0
   -2.5981    3.0000    0.0000 C   0  0
   -3.8994    3.7477    0.0000 N   0  3
   -5.1974    2.9959    0.0000 O   0  0
   -3.9020    5.2477    0.0000 O   0  5
   -2.5981    1.5000    0.0000 C   0  0
   -1.2990    0.7500    0.0000 C   0  0
   -1.2990   -0.7500    0.0000 C   0  0
    0.0000   -1.5000    0.0000 N   0  0
    0.3114   -2.9665    0.0000 C   0  0
   -0.6923   -4.0811    0.0000 S   0  0
    1.7031   -5.6606    0.0000 C   0  0
    2.3532   -7.0124    0.0000 C   0  0
    1.5071   -8.2520    0.0000 C   0  0
    0.0113   -8.1401    0.0000 F   0  0
    2.1577   -9.6036    0.0000 F   0  0
    0.6621   -9.4913    0.0000 F   0  0
  1  2  3  0
  2  3  1  0
  3  4  2  0
  4  5  1  0
  5  6  2  0
  6  7  1  0
  7  8  1  0
  8  9  2  0
  8 10  1  0
 10 11  1  4
 11 12  1  0
 12 13  2  0
 13 14  1  0
 14 15  2  0
 15 16  1  0
 16 17  2  0
 16 18  1  0
 15 19  1  0
 19 20  2  0
 20 12  1  0
 20 21  1  0
 21 22  1  0
 22 10  1  0
 22 23  1  0
 23  7  1  0
 23 24  2  0
  6 25  1  0
 25 26  2  0
 26  3  1  0
 26 27  1  0
 27 28  1  0
 27 29  1  0
 27 30  1  0
M  CHG  2  16   1  18  -1
M  END
> <assay_chembl_id>
CHEMBL4141635

> <assay_description>
Antiproliferative activity against human LNCAP cells after 3 days by MTT assay

> <document_journal>
Eur J Med Chem

> <molecule_chembl_id>
CHEMBL4160191

> <standard_value>
43000

> <IC50_uM>
43

> <Activity>
No

> <Canonical_Smiles>
N#Cc1ccc(N2C(=O)C3Cc4ccc([N+](=O)[O-])cc4CN3C2=S)cc1C(F)(F)F

$$$$

  SciTegic03142313312D

 28 31  0  0  0  0            999 V2000
    5.1496   -9.8296    0.0000 N   0  0
    4.4995   -8.4778    0.0000 C   0  0
    3.8490   -7.1253    0.0000 C   0  0
    4.6946   -5.8864    0.0000 C   0  0
    4.0445   -4.5346    0.0000 C   0  0
    2.5536   -4.4230    0.0000 C   0  0
    1.8032   -3.1233    0.0000 N   0  0
    2.4133   -1.7530    0.0000 C   0  0
    3.8805   -1.4410    0.0000 O   0  0
    1.2990   -0.7500    0.0000 C   0  0  3  0  0  0
    1.2990    0.7500    0.0000 C   0  0
    0.0000    1.5000    0.0000 C   0  0
    0.0000    3.0000    0.0000 C   0  0
   -1.2991    3.7500    0.0000 C   0  0
   -1.2991    5.2500    0.0000 N   0  0
   -2.5981    3.0000    0.0000 C   0  0
   -2.5981    1.5000    0.0000 C   0  0
   -1.2990    0.7500    0.0000 C   0  0
   -1.2990   -0.7500    0.0000 C   0  0
    0.0000   -1.5000    0.0000 N   0  0
    0.3114   -2.9665    0.0000 C   0  0
   -0.6923   -4.0811    0.0000 S   0  0
    1.7031   -5.6606    0.0000 C   0  0
    2.3532   -7.0124    0.0000 C   0  0
    1.5071   -8.2520    0.0000 C   0  0
    0.0113   -8.1401    0.0000 F   0  0
    2.1577   -9.6036    0.0000 F   0  0
    0.6621   -9.4913    0.0000 F   0  0
  1  2  3  0
  2  3  1  0
  3  4  2  0
  4  5  1  0
  5  6  2  0
  6  7  1  0
  7  8  1  0
  8  9  2  0
  8 10  1  0
 10 11  1  4
 11 12  1  0
 12 13  2  0
 13 14  1  0
 14 15  1  0
 14 16  2  0
 16 17  1  0
 17 18  2  0
 18 12  1  0
 18 19  1  0
 19 20  1  0
 20 10  1  0
 20 21  1  0
 21  7  1  0
 21 22  2  0
  6 23  1  0
 23 24  2  0
 24  3  1  0
 24 25  1  0
 25 26  1  0
 25 27  1  0
 25 28  1  0
M  END
> <assay_chembl_id>
CHEMBL4141635

> <assay_description>
Antiproliferative activity against human LNCAP cells after 3 days by MTT assay

> <document_journal>
Eur J Med Chem

> <molecule_chembl_id>
CHEMBL4169593

> <standard_value>
73000

> <IC50_uM>
73

> <Activity>
No

> <Canonical_Smiles>
N#Cc1ccc(N2C(=O)C3Cc4cc(N)ccc4CN3C2=S)cc1C(F)(F)F

$$$$

  SciTegic03142313312D

 30 33  0  0  0  0            999 V2000
    3.8926   -3.7566    0.0000 C   0  0
    2.5951   -3.0039    0.0000 C   0  0
    2.5973   -1.5031    0.0000 O   0  0
    1.2990   -0.7500    0.0000 C   0  0
    1.2990    0.7500    0.0000 C   0  0
    0.0000    1.5000    0.0000 C   0  0
   -1.2990    0.7500    0.0000 C   0  0
   -1.2990   -0.7500    0.0000 C   0  0
    0.0000   -1.5000    0.0000 C   0  0
   -2.5981   -1.5000    0.0000 C   0  0
   -3.8971   -0.7500    0.0000 N   0  0
   -5.3229   -1.2135    0.0000 C   0  0
   -5.7863   -2.6402    0.0000 S   0  0
   -6.2045    0.0000    0.0000 N   0  0
   -7.7053    0.0000    0.0000 C   0  0
   -8.5474   -1.2353    0.0000 C   0  0
  -10.0431   -1.1225    0.0000 C   0  0
  -10.6932    0.2293    0.0000 C   0  0
  -12.1898    0.3422    0.0000 C   0  0
  -13.6856    0.4551    0.0000 N   0  0
   -9.8476    1.4682    0.0000 C   0  0
  -10.4981    2.8208    0.0000 C   0  0
  -11.9938    2.9346    0.0000 F   0  0
   -9.6521    4.0594    0.0000 F   0  0
  -11.1476    4.1729    0.0000 F   0  0
   -8.3519    1.3554    0.0000 C   0  0
   -5.3229    1.2135    0.0000 C   0  0
   -5.7863    2.6401    0.0000 O   0  0
   -3.8971    0.7500    0.0000 C   0  0  3  0  0  0
   -2.5981    1.5000    0.0000 C   0  0
  1  2  1  0
  2  3  1  0
  3  4  1  0
  4  5  2  0
  5  6  1  0
  6  7  2  0
  7  8  1  0
  8  9  2  0
  9  4  1  0
  8 10  1  0
 10 11  1  0
 11 12  1  0
 12 13  2  0
 12 14  1  0
 14 15  1  0
 15 16  2  0
 16 17  1  0
 17 18  2  0
 18 19  1  0
 19 20  3  0
 18 21  1  0
 21 22  1  0
 22 23  1  0
 22 24  1  0
 22 25  1  0
 21 26  2  0
 26 15  1  0
 14 27  1  0
 27 28  2  0
 27 29  1  0
 29 11  1  0
 29 30  1  4
 30  7  1  0
M  END
> <assay_chembl_id>
CHEMBL4141635

> <assay_description>
Antiproliferative activity against human LNCAP cells after 3 days by MTT assay

> <document_journal>
Eur J Med Chem

> <molecule_chembl_id>
CHEMBL4176788

> <standard_value>
22600

> <IC50_uM>
22.6

> <Activity>
No

> <Canonical_Smiles>
CCOc1ccc2c(c1)CN1C(=S)N(c3ccc(C#N)c(C(F)(F)F)c3)C(=O)C1C2

$$$$

  SciTegic03142313312D

 31 34  0  0  0  0            999 V2000
    1.2948   -3.7516    0.0000 C   0  0
    2.5951   -3.0039    0.0000 C   0  0
    3.8926   -3.7566    0.0000 O   0  0
    2.5973   -1.5031    0.0000 N   0  0
    1.2990   -0.7500    0.0000 C   0  0
    1.2990    0.7500    0.0000 C   0  0
    0.0000    1.5000    0.0000 C   0  0
   -1.2990    0.7500    0.0000 C   0  0
   -1.2990   -0.7500    0.0000 C   0  0
    0.0000   -1.5000    0.0000 C   0  0
   -2.5981   -1.5000    0.0000 C   0  0
   -3.8971   -0.7500    0.0000 N   0  0
   -5.3229   -1.2135    0.0000 C   0  0
   -5.7863   -2.6402    0.0000 S   0  0
   -6.2045    0.0000    0.0000 N   0  0
   -7.7053    0.0000    0.0000 C   0  0
   -8.5474   -1.2353    0.0000 C   0  0
  -10.0431   -1.1225    0.0000 C   0  0
  -10.6932    0.2293    0.0000 C   0  0
  -12.1898    0.3422    0.0000 C   0  0
  -13.6856    0.4551    0.0000 N   0  0
   -9.8476    1.4682    0.0000 C   0  0
  -10.4981    2.8208    0.0000 C   0  0
  -11.9938    2.9346    0.0000 F   0  0
   -9.6521    4.0594    0.0000 F   0  0
  -11.1476    4.1729    0.0000 F   0  0
   -8.3519    1.3554    0.0000 C   0  0
   -5.3229    1.2135    0.0000 C   0  0
   -5.7863    2.6401    0.0000 O   0  0
   -3.8971    0.7500    0.0000 C   0  0  3  0  0  0
   -2.5981    1.5000    0.0000 C   0  0
  1  2  1  0
  2  3  2  0
  2  4  1  0
  4  5  1  0
  5  6  2  0
  6  7  1  0
  7  8  2  0
  8  9  1  0
  9 10  2  0
 10  5  1  0
  9 11  1  0
 11 12  1  0
 12 13  1  0
 13 14  2  0
 13 15  1  0
 15 16  1  0
 16 17  2  0
 17 18  1  0
 18 19  2  0
 19 20  1  0
 20 21  3  0
 19 22  1  0
 22 23  1  0
 23 24  1  0
 23 25  1  0
 23 26  1  0
 22 27  2  0
 27 16  1  0
 15 28  1  0
 28 29  2  0
 28 30  1  0
 30 12  1  0
 30 31  1  4
 31  8  1  0
M  END
> <assay_chembl_id>
CHEMBL4141635

> <assay_description>
Antiproliferative activity against human LNCAP cells after 3 days by MTT assay

> <document_journal>
Eur J Med Chem

> <molecule_chembl_id>
CHEMBL4175965

> <standard_value>
83800

> <IC50_uM>
83.8

> <Activity>
No

> <Canonical_Smiles>
CC(=O)Nc1ccc2c(c1)CN1C(=S)N(c3ccc(C#N)c(C(F)(F)F)c3)C(=O)C1C2

$$$$

  SciTegic03142313312D

 34 37  0  0  0  0            999 V2000
    3.8912   -5.2570    0.0000 C   0  0
    3.8933   -3.7570    0.0000 C   0  0
    5.1937   -3.0093    0.0000 C   0  0
    5.1912   -4.5090    0.0000 C   0  0
    2.5951   -3.0039    0.0000 C   0  0
    1.2948   -3.7516    0.0000 O   0  0
    2.5973   -1.5031    0.0000 N   0  0
    1.2990   -0.7500    0.0000 C   0  0
    1.2990    0.7500    0.0000 C   0  0
    0.0000    1.5000    0.0000 C   0  0
   -1.2990    0.7500    0.0000 C   0  0
   -1.2990   -0.7500    0.0000 C   0  0
    0.0000   -1.5000    0.0000 C   0  0
   -2.5981   -1.5000    0.0000 C   0  0
   -3.8971   -0.7500    0.0000 N   0  0
   -5.3229   -1.2135    0.0000 C   0  0
   -5.7863   -2.6402    0.0000 S   0  0
   -6.2045    0.0000    0.0000 N   0  0
   -7.7053    0.0000    0.0000 C   0  0
   -8.5474   -1.2353    0.0000 C   0  0
  -10.0431   -1.1225    0.0000 C   0  0
  -10.6932    0.2293    0.0000 C   0  0
  -12.1898    0.3422    0.0000 C   0  0
  -13.6856    0.4551    0.0000 N   0  0
   -9.8476    1.4682    0.0000 C   0  0
  -10.4981    2.8208    0.0000 C   0  0
  -11.9938    2.9346    0.0000 F   0  0
   -9.6521    4.0594    0.0000 F   0  0
  -11.1476    4.1729    0.0000 F   0  0
   -8.3519    1.3554    0.0000 C   0  0
   -5.3229    1.2135    0.0000 C   0  0
   -5.7863    2.6401    0.0000 O   0  0
   -3.8971    0.7500    0.0000 C   0  0  3  0  0  0
   -2.5981    1.5000    0.0000 C   0  0
  1  2  1  0
  2  3  1  0
  2  4  1  0
  2  5  1  0
  5  6  2  0
  5  7  1  0
  7  8  1  0
  8  9  2  0
  9 10  1  0
 10 11  2  0
 11 12  1  0
 12 13  2  0
 13  8  1  0
 12 14  1  0
 14 15  1  0
 15 16  1  0
 16 17  2  0
 16 18  1  0
 18 19  1  0
 19 20  2  0
 20 21  1  0
 21 22  2  0
 22 23  1  0
 23 24  3  0
 22 25  1  0
 25 26  1  0
 26 27  1  0
 26 28  1  0
 26 29  1  0
 25 30  2  0
 30 19  1  0
 18 31  1  0
 31 32  2  0
 31 33  1  0
 33 15  1  0
 33 34  1  4
 34 11  1  0
M  END
> <assay_chembl_id>
CHEMBL4141635

> <assay_description>
Antiproliferative activity against human LNCAP cells after 3 days by MTT assay

> <document_journal>
Eur J Med Chem

> <molecule_chembl_id>
CHEMBL4168764

> <standard_value>
21200

> <IC50_uM>
21.2

> <Activity>
No

> <Canonical_Smiles>
CC(C)(C)C(=O)Nc1ccc2c(c1)CN1C(=S)N(c3ccc(C#N)c(C(F)(F)F)c3)C(=O)C1C2

$$$$

  SciTegic03142313312D

 32 35  0  0  0  0            999 V2000
    1.2948   -3.7516    0.0000 C   0  0
    2.5951   -3.0039    0.0000 S   0  0
    3.8926   -3.7566    0.0000 O   0  0
    2.5923   -4.5039    0.0000 O   0  0
    2.5973   -1.5031    0.0000 N   0  0
    1.2990   -0.7500    0.0000 C   0  0
    1.2990    0.7500    0.0000 C   0  0
    0.0000    1.5000    0.0000 C   0  0
   -1.2990    0.7500    0.0000 C   0  0
   -1.2990   -0.7500    0.0000 C   0  0
    0.0000   -1.5000    0.0000 C   0  0
   -2.5981   -1.5000    0.0000 C   0  0
   -3.8971   -0.7500    0.0000 N   0  0
   -5.3229   -1.2135    0.0000 C   0  0
   -5.7863   -2.6402    0.0000 S   0  0
   -6.2045    0.0000    0.0000 N   0  0
   -7.7053    0.0000    0.0000 C   0  0
   -8.5474   -1.2353    0.0000 C   0  0
  -10.0431   -1.1225    0.0000 C   0  0
  -10.6932    0.2293    0.0000 C   0  0
  -12.1898    0.3422    0.0000 C   0  0
  -13.6856    0.4551    0.0000 N   0  0
   -9.8476    1.4682    0.0000 C   0  0
  -10.4981    2.8208    0.0000 C   0  0
  -11.9938    2.9346    0.0000 F   0  0
   -9.6521    4.0594    0.0000 F   0  0
  -11.1476    4.1729    0.0000 F   0  0
   -8.3519    1.3554    0.0000 C   0  0
   -5.3229    1.2135    0.0000 C   0  0
   -5.7863    2.6401    0.0000 O   0  0
   -3.8971    0.7500    0.0000 C   0  0  3  0  0  0
   -2.5981    1.5000    0.0000 C   0  0
  1  2  1  0
  2  3  2  0
  2  4  2  0
  2  5  1  0
  5  6  1  0
  6  7  2  0
  7  8  1  0
  8  9  2  0
  9 10  1  0
 10 11  2  0
 11  6  1  0
 10 12  1  0
 12 13  1  0
 13 14  1  0
 14 15  2  0
 14 16  1  0
 16 17  1  0
 17 18  2  0
 18 19  1  0
 19 20  2  0
 20 21  1  0
 21 22  3  0
 20 23  1  0
 23 24  1  0
 24 25  1  0
 24 26  1  0
 24 27  1  0
 23 28  2  0
 28 17  1  0
 16 29  1  0
 29 30  2  0
 29 31  1  0
 31 13  1  0
 31 32  1  4
 32  9  1  0
M  END
> <assay_chembl_id>
CHEMBL4141635

> <assay_description>
Antiproliferative activity against human LNCAP cells after 3 days by MTT assay

> <document_journal>
Eur J Med Chem

> <molecule_chembl_id>
CHEMBL4177031

> <standard_value>
31100

> <IC50_uM>
31.1

> <Activity>
No

> <Canonical_Smiles>
CS(=O)(=O)Nc1ccc2c(c1)CN1C(=S)N(c3ccc(C#N)c(C(F)(F)F)c3)C(=O)C1C2

$$$$

  SciTegic03142313312D

 31 34  0  0  1  0            999 V2000
    5.2315    1.1941    0.0000 C   0  0
    3.7691    0.8603    0.0000 C   0  0
    3.1796   -0.5190    0.0000 S   0  0
    1.6852   -0.3846    0.0000 C   0  0
    1.3514    1.0778    0.0000 C   0  0
    2.6395    1.8472    0.0000 C   0  0
    2.7740    3.3412    0.0000 C   0  0
    0.0000    1.7286    0.0000 C   0  0
    0.0000    3.2293    0.0000 C   0  0
    1.3386    3.9148    0.0000 C   0  0
    1.4153    5.4128    0.0000 C   0  0
    0.1563    6.2283    0.0000 C   0  0
    0.2330    7.7263    0.0000 Cl  0  0
   -1.1794    5.5457    0.0000 C   0  0
   -1.2561    4.0476    0.0000 C   0  0
   -1.3515    1.0777    0.0000 N   0  0
   -1.6852   -0.3847    0.0000 C   0  0  1  0  0  0
   -3.1510   -0.7161    0.0000 C   0  0
   -4.1703    0.3855    0.0000 C   0  0
   -3.7257    1.8181    0.0000 O   0  0
   -5.6342    0.0546    0.0000 O   0  0
   -6.6534    1.1562    0.0000 C   0  0
   -8.1165    0.8254    0.0000 C   0  0
   -7.6716    2.2577    0.0000 C   0  0
   -6.2088    2.5888    0.0000 C   0  0
   -0.7500   -1.5574    0.0000 C   0  0
   -1.2135   -2.9844    0.0000 N   0  0
    0.0000   -3.8661    0.0000 N   0  0
    1.2135   -2.9844    0.0000 C   0  0
    2.6401   -3.4480    0.0000 C   0  0
    0.7500   -1.5574    0.0000 N   0  0
  1  2  1  0
  2  3  1  0
  3  4  1  0
  4  5  2  0
  5  6  1  0
  6  2  2  0
  6  7  1  0
  5  8  1  0
  8  9  1  0
  9 10  2  0
 10 11  1  0
 11 12  2  0
 12 13  1  0
 12 14  1  0
 14 15  2  0
 15  9  1  0
  8 16  2  0
 16 17  1  0
 17 18  1  6
 18 19  1  0
 19 20  2  0
 19 21  1  0
 21 22  1  0
 22 23  1  0
 22 24  1  0
 22 25  1  0
 17 26  1  0
 26 27  2  0
 27 28  1  0
 28 29  2  0
 29 30  1  0
 29 31  1  0
 31 26  1  0
 31  4  1  0
M  END
> <assay_chembl_id>
CHEMBL4154868

> <assay_description>
Antiproliferative activity against human LNCAP cells

> <document_journal>
Eur J Med Chem

> <molecule_chembl_id>
CHEMBL1957266

> <standard_value>
109.6

> <IC50_uM>
0.1096

> <Activity>
Yes

> <Canonical_Smiles>
Cc1sc2c(c1C)C(c1ccc(Cl)cc1)=N[C@@H](CC(=O)OC(C)(C)C)c1nnc(C)n1-2

$$$$

  SciTegic03142313312D

 30 33  0  0  1  0            999 V2000
    8.1165    0.8254    0.0000 C   0  0
    6.6534    1.1562    0.0000 C   0  0
    5.6342    0.0546    0.0000 N   0  0
    4.1703    0.3856    0.0000 C   0  0
    3.7257    1.8182    0.0000 O   0  0
    3.1510   -0.7161    0.0000 C   0  0
    1.6852   -0.3846    0.0000 C   0  0  2  0  0  0
    1.3514    1.0778    0.0000 N   0  0
    0.0000    1.7286    0.0000 C   0  0
    0.0000    3.2293    0.0000 C   0  0
    1.3386    3.9148    0.0000 C   0  0
    1.4153    5.4128    0.0000 C   0  0
    0.1563    6.2283    0.0000 C   0  0
    0.2330    7.7263    0.0000 Cl  0  0
   -1.1794    5.5457    0.0000 C   0  0
   -1.2561    4.0476    0.0000 C   0  0
   -1.3515    1.0777    0.0000 C   0  0
   -2.4523    2.0983    0.0000 C   0  0
   -3.8856    1.6561    0.0000 C   0  0
   -4.9879    2.6747    0.0000 O   0  0
   -6.4206    2.2305    0.0000 C   0  0
   -4.2194    0.1937    0.0000 C   0  0
   -3.1198   -0.8265    0.0000 C   0  0
   -1.6852   -0.3847    0.0000 C   0  0
   -0.7500   -1.5574    0.0000 N   0  0
   -1.2135   -2.9844    0.0000 C   0  0
   -2.6401   -3.4480    0.0000 C   0  0
    0.0000   -3.8661    0.0000 N   0  0
    1.2135   -2.9844    0.0000 N   0  0
    0.7500   -1.5574    0.0000 C   0  0
  1  2  1  0
  2  3  1  0
  3  4  1  0
  4  5  2  0
  4  6  1  0
  7  6  1  1
  7  8  1  0
  8  9  2  0
  9 10  1  0
 10 11  2  0
 11 12  1  0
 12 13  2  0
 13 14  1  0
 13 15  1  0
 15 16  2  0
 16 10  1  0
  9 17  1  0
 17 18  2  0
 18 19  1  0
 19 20  1  0
 20 21  1  0
 19 22  2  0
 22 23  1  0
 23 24  2  0
 24 17  1  4
 24 25  1  0
 25 26  1  0
 26 27  1  0
 26 28  2  0
 28 29  1  0
 29 30  2  0
 30 25  1  0
 30  7  1  0
M  END
> <assay_chembl_id>
CHEMBL4154868

> <assay_description>
Antiproliferative activity against human LNCAP cells

> <document_journal>
Eur J Med Chem

> <molecule_chembl_id>
CHEMBL1232461

> <standard_value>
356.5

> <IC50_uM>
0.3565

> <Activity>
Yes

> <Canonical_Smiles>
CCNC(=O)C[C@@H]1N=C(c2ccc(Cl)cc2)c2cc(OC)ccc2-n2c(C)nnc21

$$$$

  SciTegic03142313312D

 34 38  0  0  1  0            999 V2000
    5.2315    1.1941    0.0000 C   0  0
    3.7691    0.8603    0.0000 C   0  0
    3.1796   -0.5190    0.0000 S   0  0
    1.6852   -0.3846    0.0000 C   0  0
    1.3514    1.0778    0.0000 C   0  0
    2.6395    1.8472    0.0000 C   0  0
    2.7740    3.3412    0.0000 C   0  0
    0.0000    1.7286    0.0000 C   0  0
    0.0000    3.2293    0.0000 C   0  0
    1.3386    3.9148    0.0000 C   0  0
    1.4153    5.4128    0.0000 C   0  0
    0.1563    6.2283    0.0000 C   0  0
    0.2330    7.7263    0.0000 Cl  0  0
   -1.1794    5.5457    0.0000 C   0  0
   -1.2561    4.0476    0.0000 C   0  0
   -1.3515    1.0777    0.0000 N   0  0
   -1.6852   -0.3847    0.0000 C   0  0  1  0  0  0
   -3.1510   -0.7161    0.0000 C   0  0
   -4.1703    0.3855    0.0000 C   0  0
   -3.7257    1.8181    0.0000 O   0  0
   -5.6342    0.0546    0.0000 N   0  0
   -6.6534    1.1562    0.0000 C   0  0
   -8.1170    0.8275    0.0000 C   0  0
   -9.1335    1.9306    0.0000 C   0  0
   -8.6864    3.3624    0.0000 C   0  0
   -9.7029    4.4655    0.0000 O   0  0
   -7.2229    3.6912    0.0000 C   0  0
   -6.2064    2.5881    0.0000 C   0  0
   -0.7500   -1.5574    0.0000 C   0  0
   -1.2135   -2.9844    0.0000 N   0  0
    0.0000   -3.8661    0.0000 N   0  0
    1.2135   -2.9844    0.0000 C   0  0
    2.6401   -3.4480    0.0000 C   0  0
    0.7500   -1.5574    0.0000 N   0  0
  1  2  1  0
  2  3  1  0
  3  4  1  0
  4  5  2  0
  5  6  1  0
  6  2  2  0
  6  7  1  0
  5  8  1  0
  8  9  1  0
  9 10  2  0
 10 11  1  0
 11 12  2  0
 12 13  1  0
 12 14  1  0
 14 15  2  0
 15  9  1  0
  8 16  2  0
 16 17  1  0
 17 18  1  6
 18 19  1  0
 19 20  2  0
 19 21  1  0
 21 22  1  0
 22 23  2  0
 23 24  1  0
 24 25  2  0
 25 26  1  0
 25 27  1  0
 27 28  2  0
 28 22  1  0
 17 29  1  0
 29 30  2  0
 30 31  1  0
 31 32  2  0
 32 33  1  0
 32 34  1  0
 34 29  1  0
 34  4  1  0
M  END
> <assay_chembl_id>
CHEMBL4154868

> <assay_description>
Antiproliferative activity against human LNCAP cells

> <document_journal>
Eur J Med Chem

> <molecule_chembl_id>
CHEMBL3581647

> <standard_value>
111.4

> <IC50_uM>
0.1114

> <Activity>
Yes

> <Canonical_Smiles>
Cc1sc2c(c1C)C(c1ccc(Cl)cc1)=N[C@@H](CC(=O)Nc1ccc(O)cc1)c1nnc(C)n1-2

$$$$

  SciTegic03142313312D

 22 24  0  0  0  0            999 V2000
    6.4983   -0.7414    0.0000 C   0  0
    5.2003   -1.4932    0.0000 C   0  0
    3.8990   -0.7455    0.0000 C   0  0
    2.6003   -1.4977    0.0000 C   0  0
    1.2990   -0.7500    0.0000 C   0  0  3  0  0  0
    1.2990    0.7500    0.0000 O   0  0
    0.0000    1.5000    0.0000 C   0  0
    0.0000    3.0000    0.0000 C   0  0
   -1.2991    3.7500    0.0000 C   0  0
   -1.2991    5.2507    0.0000 C   0  0
   -0.0869    6.1125    0.0000 C   0  0
    1.3376    5.6428    0.0000 C   0  0
   -0.5527    7.5384    0.0000 N   0  0
   -2.0527    7.5360    0.0000 O   0  0
   -2.5140    6.1087    0.0000 C   0  0
   -3.9370    5.6344    0.0000 C   0  0
   -2.5981    3.0000    0.0000 C   0  0
   -2.5981    1.5000    0.0000 C   0  0
   -1.2990    0.7500    0.0000 C   0  0
   -1.2990   -0.7500    0.0000 N   0  0
    0.0000   -1.5000    0.0000 C   0  0
    0.0000   -3.0000    0.0000 O   0  0
  1  2  1  0
  2  3  1  0
  3  4  1  0
  5  4  1  4
  5  6  1  0
  6  7  1  0
  7  8  2  0
  8  9  1  0
  9 10  1  0
 10 11  1  0
 11 12  1  0
 11 13  2  0
 13 14  1  0
 14 15  1  0
 15 10  2  0
 15 16  1  0
  9 17  2  0
 17 18  1  0
 18 19  2  0
 19  7  1  0
 19 20  1  0
 20 21  1  0
 21  5  1  0
 21 22  2  0
M  END
> <assay_chembl_id>
CHEMBL4154889

> <assay_description>
Antiproliferative activity against human LNCAP cells treated at 12 hrs post cell seeding measured at 72 to 144 hrs post cell seeding by Cell-Titer Glo assay

> <document_journal>
Eur J Med Chem

> <molecule_chembl_id>
CHEMBL4176247

> <standard_value>
820

> <IC50_uM>
0.82

> <Activity>
Yes

> <Canonical_Smiles>
CCCCC1Oc2cc(-c3c(C)noc3C)ccc2NC1=O

$$$$

  SciTegic03142313312D

 22 24  0  0  0  0            999 V2000
    1.6120   -3.9767    0.0000 C   0  0
    2.7343   -2.9815    0.0000 C   0  0
    4.2010   -3.2956    0.0000 N   0  0
    4.9531   -1.9978    0.0000 O   0  0
    3.9511   -0.8815    0.0000 C   0  0
    4.2566    0.5871    0.0000 C   0  0
    2.5987   -1.5004    0.0000 C   0  0
    1.2990   -0.7500    0.0000 C   0  0
    1.2990    0.7500    0.0000 C   0  0
    0.0000    1.5000    0.0000 C   0  0
   -1.2990    0.7500    0.0000 C   0  0
   -1.2990   -0.7500    0.0000 C   0  0
    0.0000   -1.5000    0.0000 C   0  0
   -2.5981   -1.5000    0.0000 O   0  0
   -3.8971   -0.7500    0.0000 C   0  0  3  0  0  0
   -5.1953   -1.5031    0.0000 C   0  0
   -5.1932   -3.0039    0.0000 C   0  0
   -6.4907   -3.7566    0.0000 C   0  0
   -3.8928   -3.7517    0.0000 C   0  0
   -3.8971    0.7500    0.0000 C   0  0
   -5.1962    1.5000    0.0000 O   0  0
   -2.5981    1.5000    0.0000 N   0  0
  1  2  1  0
  2  3  2  0
  3  4  1  0
  4  5  1  0
  5  6  1  0
  5  7  2  0
  7  2  1  0
  7  8  1  0
  8  9  2  0
  9 10  1  0
 10 11  2  0
 11 12  1  0
 12 13  2  0
 13  8  1  0
 12 14  1  0
 14 15  1  0
 15 16  1  4
 16 17  1  0
 17 18  1  0
 17 19  1  0
 15 20  1  0
 20 21  2  0
 20 22  1  0
 22 11  1  0
M  END
> <assay_chembl_id>
CHEMBL4154889

> <assay_description>
Antiproliferative activity against human LNCAP cells treated at 12 hrs post cell seeding measured at 72 to 144 hrs post cell seeding by Cell-Titer Glo assay

> <document_journal>
Eur J Med Chem

> <molecule_chembl_id>
CHEMBL4160349

> <standard_value>
570

> <IC50_uM>
0.57

> <Activity>
Yes

> <Canonical_Smiles>
Cc1noc(C)c1-c1ccc2c(c1)OC(CC(C)C)C(=O)N2

$$$$

  SciTegic03142313312D

 25 28  0  0  0  0            999 V2000
    1.6120   -3.9767    0.0000 C   0  0
    2.7343   -2.9815    0.0000 C   0  0
    4.2010   -3.2956    0.0000 N   0  0
    4.9531   -1.9978    0.0000 O   0  0
    3.9511   -0.8815    0.0000 C   0  0
    4.2566    0.5871    0.0000 C   0  0
    2.5987   -1.5004    0.0000 C   0  0
    1.2990   -0.7500    0.0000 C   0  0
    1.2990    0.7500    0.0000 C   0  0
    0.0000    1.5000    0.0000 C   0  0
   -1.2990    0.7500    0.0000 C   0  0
   -1.2990   -0.7500    0.0000 C   0  0
    0.0000   -1.5000    0.0000 C   0  0
   -2.5981   -1.5000    0.0000 O   0  0
   -3.8971   -0.7500    0.0000 C   0  0  3  0  0  0
   -5.1968   -1.5004    0.0000 C   0  0
   -6.4948   -0.7484    0.0000 C   0  0
   -7.7950   -1.4963    0.0000 C   0  0
   -7.7973   -2.9963    0.0000 C   0  0
   -6.4995   -3.7484    0.0000 C   0  0
   -5.1993   -3.0005    0.0000 C   0  0
   -3.9014   -3.7525    0.0000 F   0  0
   -3.8971    0.7500    0.0000 C   0  0
   -5.1962    1.5000    0.0000 O   0  0
   -2.5981    1.5000    0.0000 N   0  0
  1  2  1  0
  2  3  2  0
  3  4  1  0
  4  5  1  0
  5  6  1  0
  5  7  2  0
  7  2  1  0
  7  8  1  0
  8  9  2  0
  9 10  1  0
 10 11  2  0
 11 12  1  0
 12 13  2  0
 13  8  1  0
 12 14  1  0
 14 15  1  0
 15 16  1  4
 16 17  2  0
 17 18  1  0
 18 19  2  0
 19 20  1  0
 20 21  2  0
 21 16  1  0
 21 22  1  0
 15 23  1  0
 23 24  2  0
 23 25  1  0
 25 11  1  0
M  END
> <assay_chembl_id>
CHEMBL4154889

> <assay_description>
Antiproliferative activity against human LNCAP cells treated at 12 hrs post cell seeding measured at 72 to 144 hrs post cell seeding by Cell-Titer Glo assay

> <document_journal>
Eur J Med Chem

> <molecule_chembl_id>
CHEMBL4161994

> <standard_value>
640

> <IC50_uM>
0.64

> <Activity>
Yes

> <Canonical_Smiles>
Cc1noc(C)c1-c1ccc2c(c1)OC(c1ccccc1F)C(=O)N2

$$$$

  SciTegic03142313312D

 22 24  0  0  1  0            999 V2000
    1.6120   -3.9767    0.0000 C   0  0
    2.7343   -2.9815    0.0000 C   0  0
    4.2010   -3.2956    0.0000 N   0  0
    4.9531   -1.9978    0.0000 O   0  0
    3.9511   -0.8815    0.0000 C   0  0
    4.2566    0.5871    0.0000 C   0  0
    2.5987   -1.5004    0.0000 C   0  0
    1.2990   -0.7500    0.0000 C   0  0
    1.2990    0.7500    0.0000 C   0  0
    0.0000    1.5000    0.0000 C   0  0
   -1.2990    0.7500    0.0000 C   0  0
   -1.2990   -0.7500    0.0000 C   0  0
    0.0000   -1.5000    0.0000 C   0  0
   -2.5981   -1.5000    0.0000 O   0  0
   -3.8971   -0.7500    0.0000 C   0  0  2  0  0  0
   -5.1953   -1.5031    0.0000 C   0  0
   -5.1932   -3.0039    0.0000 C   0  0
   -6.4907   -3.7566    0.0000 C   0  0
   -3.8928   -3.7517    0.0000 C   0  0
   -3.8971    0.7500    0.0000 C   0  0
   -5.1962    1.5000    0.0000 O   0  0
   -2.5981    1.5000    0.0000 N   0  0
  1  2  1  0
  2  3  2  0
  3  4  1  0
  4  5  1  0
  5  6  1  0
  5  7  2  0
  7  2  1  0
  7  8  1  0
  8  9  2  0
  9 10  1  0
 10 11  2  0
 11 12  1  0
 12 13  2  0
 13  8  1  0
 12 14  1  0
 14 15  1  0
 15 16  1  6
 16 17  1  0
 17 18  1  0
 17 19  1  0
 15 20  1  0
 20 21  2  0
 20 22  1  0
 22 11  1  0
M  END
> <assay_chembl_id>
CHEMBL4154889

> <assay_description>
Antiproliferative activity against human LNCAP cells treated at 12 hrs post cell seeding measured at 72 to 144 hrs post cell seeding by Cell-Titer Glo assay

> <document_journal>
Eur J Med Chem

> <molecule_chembl_id>
CHEMBL4167192

> <standard_value>
460

> <IC50_uM>
0.46

> <Activity>
Yes

> <Canonical_Smiles>
Cc1noc(C)c1-c1ccc2c(c1)O[C@H](CC(C)C)C(=O)N2

$$$$

  SciTegic03142313312D

 22 25  0  0  1  0            999 V2000
    1.6120   -3.9767    0.0000 C   0  0
    2.7343   -2.9815    0.0000 C   0  0
    4.2010   -3.2956    0.0000 N   0  0
    4.9531   -1.9978    0.0000 O   0  0
    3.9511   -0.8815    0.0000 C   0  0
    4.2566    0.5871    0.0000 C   0  0
    2.5987   -1.5004    0.0000 C   0  0
    1.2990   -0.7500    0.0000 C   0  0
    1.2990    0.7500    0.0000 C   0  0
    0.0000    1.5000    0.0000 C   0  0
   -1.2990    0.7500    0.0000 C   0  0
   -1.2990   -0.7500    0.0000 C   0  0
    0.0000   -1.5000    0.0000 C   0  0
   -2.5981   -1.5000    0.0000 O   0  0
   -3.8971   -0.7500    0.0000 C   0  0  2  0  0  0
   -5.1953   -1.5031    0.0000 C   0  0
   -5.1932   -3.0039    0.0000 C   0  0
   -5.9389   -4.2142    0.0000 C   0  0
   -4.4389   -4.2089    0.0000 C   0  0
   -3.8971    0.7500    0.0000 C   0  0
   -5.1962    1.5000    0.0000 O   0  0
   -2.5981    1.5000    0.0000 N   0  0
  1  2  1  0
  2  3  2  0
  3  4  1  0
  4  5  1  0
  5  6  1  0
  5  7  2  0
  7  2  1  0
  7  8  1  0
  8  9  2  0
  9 10  1  0
 10 11  2  0
 11 12  1  0
 12 13  2  0
 13  8  1  0
 12 14  1  0
 14 15  1  0
 15 16  1  6
 16 17  1  0
 17 18  1  0
 18 19  1  0
 19 17  1  0
 15 20  1  0
 20 21  2  0
 20 22  1  0
 22 11  1  0
M  END
> <assay_chembl_id>
CHEMBL4154889

> <assay_description>
Antiproliferative activity against human LNCAP cells treated at 12 hrs post cell seeding measured at 72 to 144 hrs post cell seeding by Cell-Titer Glo assay

> <document_journal>
Eur J Med Chem

> <molecule_chembl_id>
CHEMBL4175060

> <standard_value>
580

> <IC50_uM>
0.58

> <Activity>
Yes

> <Canonical_Smiles>
Cc1noc(C)c1-c1ccc2c(c1)O[C@H](CC1CC1)C(=O)N2

$$$$

  SciTegic03142313312D

109116  0  0  1  0            999 V2000
   -0.0022   -5.9505    0.0000 C   0  0
   -1.4772   -5.6781    0.0000 C   0  0
   -1.9801   -4.2640    0.0000 C   0  0  1  0  0  0
   -3.4587   -4.5165    0.0000 C   0  0
   -4.4166   -3.3623    0.0000 N   0  0  3  0  0  0
   -5.8952   -3.6148    0.0000 C   0  0
   -6.8532   -2.4605    0.0000 C   0  0
   -6.3326   -1.0538    0.0000 C   0  0
   -7.2906    0.1005    0.0000 C   0  0
   -6.7700    1.5072    0.0000 C   0  0
   -7.7309    2.6601    0.0000 O   0  0
   -9.2091    2.4055    0.0000 C   0  0
   -5.2914    1.7597    0.0000 C   0  0
   -4.7676    3.1662    0.0000 O   0  0
   -3.2887    3.4166    0.0000 C   0  0
   -4.3334    0.6055    0.0000 C   0  0
   -4.8540   -0.8013    0.0000 C   0  0
   -3.8960   -1.9555    0.0000 C   0  0  2  0  0  0
   -2.4174   -1.7030    0.0000 C   0  0
   -1.4595   -2.8572    0.0000 C   0  0  2  0  0  0
   -0.1572   -2.1111    0.0000 C   0  0
    1.1405   -2.8650    0.0000 C   0  0  2  0  0  0
    1.6527   -4.2749    0.0000 C   0  0
    0.6878   -5.4233    0.0000 C   0  0
    1.1999   -6.8332    0.0000 C   0  0
    0.2321   -7.9803    0.0000 O   0  0
   -1.2446   -7.7168    0.0000 C   0  0
    2.6770   -7.0946    0.0000 C   0  0
    3.1923   -8.5042    0.0000 O   0  0
    4.6697   -8.7636    0.0000 C   0  0
    3.6419   -5.9462    0.0000 C   0  0
    3.1298   -4.5363    0.0000 C   0  0
    4.0947   -3.3879    0.0000 C   0  0
    3.5826   -1.9780    0.0000 C   0  0
    2.1056   -1.7166    0.0000 N   0  0
    1.5961   -0.3048    0.0000 C   0  0
    0.6117   -0.1288    0.0000 O   0  0
    2.5632    0.8428    0.0000 O   0  0
    2.0538    2.2545    0.0000 C   0  0
    3.0209    3.4022    0.0000 C   0  0
    2.5138    4.8139    0.0000 C   0  0
    3.4828    5.9590    0.0000 C   0  0
    4.9589    5.6924    0.0000 C   0  0
    5.9307    6.8361    0.0000 N   0  0
    7.4073    6.5672    0.0000 C   0  0
    7.9120    5.1547    0.0000 O   0  0
    8.3791    7.7109    0.0000 C   0  0  2  0  0  0
    8.0082    9.1512    0.0000 C   0  0
    9.2835    9.9408    0.0000 C   0  0
   10.4286    8.9718    0.0000 C   0  0
    9.8609    7.5834    0.0000 N   0  0
   10.6424    6.3052    0.0000 C   0  0
    9.9248    4.9879    0.0000 O   0  0
   12.1428    6.3419    0.0000 C   0  0  2  0  0  0
   12.8603    7.6591    0.0000 C   0  0
   12.9256    5.0614    0.0000 N   0  0
   14.4259    5.0981    0.0000 C   0  0
   15.1435    6.4154    0.0000 O   0  0
   15.2088    3.8176    0.0000 C   0  0  2  0  0  0
   14.4935    2.4982    0.0000 C   0  0
   15.2777    1.2186    0.0000 C   0  0
   14.5625   -0.1009    0.0000 C   0  0
   13.0630   -0.1407    0.0000 N   0  0
   15.3463   -1.3798    0.0000 O   0  0
   16.7091    3.8544    0.0000 N   0  0
   17.4919    2.5739    0.0000 C   0  0
   16.7744    1.2566    0.0000 O   0  0
   18.9923    2.6106    0.0000 C   0  0  2  0  0  0
   19.7130    3.9271    0.0000 C   0  0
   21.2134    3.9622    0.0000 C   0  0
   21.9337    5.2779    0.0000 C   0  0
   21.7332    3.1079    0.0000 C   0  0
   19.7751    1.3301    0.0000 N   0  0
   21.2755    1.3668    0.0000 C   0  0
   21.7539    2.2450    0.0000 O   0  0
   22.0583    0.0863    0.0000 C   0  0  2  0  0  0
   21.3431   -1.2331    0.0000 C   0  0
   22.1273   -2.5127    0.0000 C   0  0
   21.4121   -3.8322    0.0000 C   0  0
   22.1963   -5.1118    0.0000 C   0  0
   21.4814   -6.4305    0.0000 N   0  0
   23.5587    0.1231    0.0000 N   0  0
   24.3415   -1.1574    0.0000 C   0  0
   23.6239   -2.4747    0.0000 O   0  0
   25.8419   -1.1207    0.0000 C   0  0  2  0  0  0
   26.5625    0.1958    0.0000 C   0  0
   28.0621    0.2308    0.0000 O   0  0
   26.6247   -2.4012    0.0000 N   0  0
   28.1251   -2.3645    0.0000 C   0  0
   28.8426   -1.0472    0.0000 O   0  0
   28.9079   -3.6450    0.0000 C   0  0  2  0  0  0
   28.1926   -4.9644    0.0000 C   0  0
   28.9764   -6.2433    0.0000 O   0  0
   30.4083   -3.6082    0.0000 N   0  0
   31.1911   -4.8887    0.0000 C   0  0
   30.4735   -6.2060    0.0000 O   0  0
   32.6914   -4.8520    0.0000 C   0  0  2  0  0  0
   33.4743   -6.1325    0.0000 C   0  0
   34.9746   -6.0958    0.0000 C   0  0
   35.8663   -7.2860    0.0000 C   0  0
   37.2801   -6.7848    0.0000 N   0  0
   37.2403   -5.2853    0.0000 C   0  0
   35.8020   -4.8598    0.0000 N   0  0
   33.4067   -3.5325    0.0000 N   0  0
   32.6225   -2.2529    0.0000 C   0  0
   31.1230   -2.2927    0.0000 C   0  0
   33.3373   -0.9342    0.0000 O   0  0
    5.4661    4.2807    0.0000 C   0  0
    4.4971    3.1356    0.0000 C   0  0
  1  2  1  0
  3  2  1  1
  3  4  1  0
  5  4  1  4
  5  6  1  0
  6  7  1  0
  7  8  1  0
  8  9  2  0
  9 10  1  0
 10 11  1  0
 11 12  1  0
 10 13  2  0
 13 14  1  0
 14 15  1  0
 13 16  1  0
 16 17  2  0
 17  8  1  0
 17 18  1  0
 18  5  1  0
 18 19  1  6
 19 20  1  0
 20  3  1  0
 20 21  1  6
 22 21  1  1
 22 23  1  0
 23 24  2  0
 24 25  1  0
 25 26  1  0
 26 27  1  0
 25 28  2  0
 28 29  1  0
 29 30  1  0
 28 31  1  0
 31 32  2  0
 32 23  1  0
 32 33  1  0
 33 34  1  0
 34 35  1  0
 35 22  1  0
 35 36  1  0
 36 37  2  0
 36 38  1  0
 38 39  1  0
 39 40  1  0
 40 41  2  0
 41 42  1  0
 42 43  2  0
 43 44  1  0
 44 45  1  0
 45 46  2  0
 47 45  1  6
 47 48  1  0
 48 49  1  0
 49 50  1  0
 50 51  1  0
 51 47  1  0
 51 52  1  0
 52 53  2  0
 52 54  1  0
 54 55  1  6
 54 56  1  0
 56 57  1  0
 57 58  2  0
 57 59  1  0
 59 60  1  1
 60 61  1  0
 61 62  1  0
 62 63  1  0
 62 64  2  0
 59 65  1  0
 65 66  1  0
 66 67  2  0
 66 68  1  0
 68 69  1  6
 69 70  1  0
 70 71  1  0
 70 72  1  0
 68 73  1  0
 73 74  1  0
 74 75  2  0
 74 76  1  0
 76 77  1  1
 77 78  1  0
 78 79  1  0
 79 80  1  0
 80 81  1  0
 76 82  1  0
 82 83  1  0
 83 84  2  0
 83 85  1  0
 85 86  1  6
 86 87  1  0
 85 88  1  0
 88 89  1  0
 89 90  2  0
 89 91  1  0
 91 92  1  1
 92 93  1  0
 91 94  1  0
 94 95  1  0
 95 96  2  0
 95 97  1  0
 97 98  1  1
 98 99  1  0
 99100  2  0
100101  1  0
101102  2  0
102103  1  0
103 99  1  0
 97104  1  0
104105  1  0
105106  1  0
105107  2  0
 43108  1  0
108109  2  0
109 40  1  0
M  END
> <assay_chembl_id>
CHEMBL4186338

> <assay_description>
Antiproliferative activity against human LNCAP cells expressing PSA after 3 days by MTT assay

> <document_journal>
Bioorg Med Chem

> <molecule_chembl_id>
CHEMBL4205245

> <standard_value>
757

> <IC50_uM>
0.757

> <Activity>
Yes

> <Canonical_Smiles>
CC[C@H]1CN2CCc3cc(OC)c(OC)cc3[C@@H]2C[C@@H]1C[C@@H]1c2cc(OC)c(OC)cc2CCN1C(=O)OCc1ccc(NC(=O)[C@@H]2CCCN2C(=O)[C@H](C)NC(=O)[C@H](CCC(N)=O)NC(=O)[C@H](CC(C)C)NC(=O)[C@H](CCCCN)NC(=O)[C@H](CO)NC(=O)[C@H]
(CO)NC(=O)[C@H](Cc2cnc[nH]2)NC(C)=O)cc1

$$$$

  SciTegic03142313312D

111117  0  0  1  0            999 V2000
   -0.0022   -5.9505    0.0000 C   0  0
   -1.4772   -5.6781    0.0000 C   0  0
   -1.9801   -4.2640    0.0000 C   0  0  1  0  0  0
   -3.4587   -4.5165    0.0000 C   0  0
   -4.4166   -3.3623    0.0000 N   0  0  3  0  0  0
   -5.8952   -3.6148    0.0000 C   0  0
   -6.8532   -2.4605    0.0000 C   0  0
   -6.3326   -1.0538    0.0000 C   0  0
   -7.2906    0.1005    0.0000 C   0  0
   -6.7700    1.5072    0.0000 C   0  0
   -7.7309    2.6601    0.0000 O   0  0
   -9.2091    2.4055    0.0000 C   0  0
   -5.2914    1.7597    0.0000 C   0  0
   -4.7676    3.1662    0.0000 O   0  0
   -3.2887    3.4166    0.0000 C   0  0
   -4.3334    0.6055    0.0000 C   0  0
   -4.8540   -0.8013    0.0000 C   0  0
   -3.8960   -1.9555    0.0000 C   0  0  2  0  0  0
   -2.4174   -1.7030    0.0000 C   0  0
   -1.4595   -2.8572    0.0000 C   0  0  2  0  0  0
   -0.1572   -2.1111    0.0000 C   0  0
    1.1405   -2.8650    0.0000 C   0  0  2  0  0  0
    1.6527   -4.2749    0.0000 C   0  0
    0.6878   -5.4233    0.0000 C   0  0
    1.1999   -6.8332    0.0000 C   0  0
    0.2321   -7.9803    0.0000 O   0  0
   -1.2446   -7.7168    0.0000 C   0  0
    2.6770   -7.0946    0.0000 C   0  0
    3.1923   -8.5042    0.0000 O   0  0
    4.6697   -8.7636    0.0000 C   0  0
    3.6419   -5.9462    0.0000 C   0  0
    3.1298   -4.5363    0.0000 C   0  0
    4.0947   -3.3879    0.0000 C   0  0
    3.5826   -1.9780    0.0000 C   0  0
    2.1056   -1.7166    0.0000 N   0  0
    1.5961   -0.3048    0.0000 C   0  0
    0.6117   -0.1288    0.0000 O   0  0
    2.5632    0.8428    0.0000 O   0  0
    2.0538    2.2545    0.0000 C   0  0
    3.0209    3.4022    0.0000 C   0  0
    2.5138    4.8139    0.0000 C   0  0
    3.4828    5.9590    0.0000 C   0  0
    4.9589    5.6924    0.0000 C   0  0
    5.9307    6.8361    0.0000 N   0  0
    7.4073    6.5672    0.0000 C   0  0
    7.9120    5.1547    0.0000 O   0  0
    8.3791    7.7109    0.0000 C   0  0  2  0  0  0
    7.8770    9.1253    0.0000 C   0  0
    8.8501   10.2679    0.0000 C   0  0
    8.3483   11.6814    0.0000 C   0  0
    9.8336   10.0867    0.0000 C   0  0
    9.8557    7.4420    0.0000 N   0  0
   10.8275    8.5857    0.0000 C   0  0
   10.4910    9.5274    0.0000 O   0  0
   12.3040    8.3169    0.0000 C   0  0  2  0  0  0
   12.8119    6.9046    0.0000 C   0  0
   14.2880    6.6375    0.0000 O   0  0
   13.2759    9.4606    0.0000 N   0  0
   14.7524    9.1917    0.0000 C   0  0
   15.2571    7.7792    0.0000 O   0  0
   15.7242   10.3354    0.0000 C   0  0  2  0  0  0
   15.2222   11.7498    0.0000 C   0  0
   16.1952   12.8924    0.0000 C   0  0
   15.6932   14.3067    0.0000 C   0  0
   14.2180   14.5785    0.0000 N   0  0
   16.6657   15.4487    0.0000 O   0  0
   17.2008   10.0666    0.0000 N   0  0
   18.1726   11.2103    0.0000 C   0  0
   17.6679   12.6228    0.0000 O   0  0
   19.6492   10.9414    0.0000 C   0  0  2  0  0  0
   20.1571    9.5291    0.0000 C   0  0
   21.6339    9.2619    0.0000 C   0  0
   22.1415    7.8504    0.0000 C   0  0
   22.2799   10.0253    0.0000 C   0  0
   20.6210   12.0851    0.0000 N   0  0
   22.0975   11.8163    0.0000 C   0  0
   22.4340   10.8746    0.0000 O   0  0
   23.0694   12.9599    0.0000 C   0  0  2  0  0  0
   22.5673   14.3743    0.0000 C   0  0
   23.5404   15.5169    0.0000 C   0  0
   23.0383   16.9313    0.0000 C   0  0
   24.0114   18.0739    0.0000 C   0  0
   23.5096   19.4874    0.0000 N   0  0
   24.5459   12.6911    0.0000 N   0  0
   25.5178   13.8348    0.0000 C   0  0
   25.0130   15.2473    0.0000 O   0  0
   26.9943   13.5659    0.0000 C   0  0  2  0  0  0
   27.5022   12.1537    0.0000 C   0  0
   28.9782   11.8866    0.0000 O   0  0
   27.9661   14.7096    0.0000 N   0  0
   29.4427   14.4408    0.0000 C   0  0
   29.9474   13.0282    0.0000 O   0  0
   30.4145   15.5845    0.0000 C   0  0  2  0  0  0
   29.9124   16.9988    0.0000 C   0  0
   30.8850   18.1408    0.0000 O   0  0
   31.8911   15.3156    0.0000 N   0  0
   32.8629   16.4593    0.0000 C   0  0
   32.3582   17.8718    0.0000 O   0  0
   34.3394   16.1905    0.0000 C   0  0  2  0  0  0
   35.3113   17.3341    0.0000 C   0  0
   36.7878   17.0653    0.0000 C   0  0
   37.8532   18.1030    0.0000 C   0  0
   39.1723   17.3887    0.0000 N   0  0
   38.9005   15.9135    0.0000 C   0  0
   37.4136   15.7161    0.0000 N   0  0
   34.8415   14.7761    0.0000 N   0  0
   33.8684   13.6335    0.0000 C   0  0
   32.3933   13.9052    0.0000 C   0  0
   34.3702   12.2199    0.0000 O   0  0
    5.4661    4.2807    0.0000 C   0  0
    4.4971    3.1356    0.0000 C   0  0
  1  2  1  0
  3  2  1  1
  3  4  1  0
  5  4  1  4
  5  6  1  0
  6  7  1  0
  7  8  1  0
  8  9  2  0
  9 10  1  0
 10 11  1  0
 11 12  1  0
 10 13  2  0
 13 14  1  0
 14 15  1  0
 13 16  1  0
 16 17  2  0
 17  8  1  0
 17 18  1  0
 18  5  1  0
 18 19  1  6
 19 20  1  0
 20  3  1  0
 20 21  1  6
 22 21  1  1
 22 23  1  0
 23 24  2  0
 24 25  1  0
 25 26  1  0
 26 27  1  0
 25 28  2  0
 28 29  1  0
 29 30  1  0
 28 31  1  0
 31 32  2  0
 32 23  1  0
 32 33  1  0
 33 34  1  0
 34 35  1  0
 35 22  1  0
 35 36  1  0
 36 37  2  0
 36 38  1  0
 38 39  1  0
 39 40  1  0
 40 41  2  0
 41 42  1  0
 42 43  2  0
 43 44  1  0
 44 45  1  0
 45 46  2  0
 45 47  1  0
 47 48  1  6
 48 49  1  0
 49 50  1  0
 49 51  1  0
 47 52  1  0
 52 53  1  0
 53 54  2  0
 53 55  1  0
 55 56  1  1
 56 57  1  0
 55 58  1  0
 58 59  1  0
 59 60  2  0
 59 61  1  0
 61 62  1  6
 62 63  1  0
 63 64  1  0
 64 65  1  0
 64 66  2  0
 61 67  1  0
 67 68  1  0
 68 69  2  0
 68 70  1  0
 70 71  1  1
 71 72  1  0
 72 73  1  0
 72 74  1  0
 70 75  1  0
 75 76  1  0
 76 77  2  0
 76 78  1  0
 78 79  1  6
 79 80  1  0
 80 81  1  0
 81 82  1  0
 82 83  1  0
 78 84  1  0
 84 85  1  0
 85 86  2  0
 85 87  1  0
 87 88  1  1
 88 89  1  0
 87 90  1  0
 90 91  1  0
 91 92  2  0
 91 93  1  0
 93 94  1  6
 94 95  1  0
 93 96  1  0
 96 97  1  0
 97 98  2  0
 97 99  1  0
 99100  1  6
100101  1  0
101102  2  0
102103  1  0
103104  2  0
104105  1  0
105101  1  0
 99106  1  0
106107  1  0
107108  1  0
107109  2  0
 43110  1  0
110111  2  0
111 40  1  0
M  END
> <assay_chembl_id>
CHEMBL4186338

> <assay_description>
Antiproliferative activity against human LNCAP cells expressing PSA after 3 days by MTT assay

> <document_journal>
Bioorg Med Chem

> <molecule_chembl_id>
CHEMBL4215066

> <standard_value>
59.01

> <IC50_uM>
0.05901

> <Activity>
Yes

> <Canonical_Smiles>
CC[C@H]1CN2CCc3cc(OC)c(OC)cc3[C@@H]2C[C@@H]1C[C@@H]1c2cc(OC)c(OC)cc2CCN1C(=O)OCc1ccc(NC(=O)[C@H](CC(C)C)NC(=O)[C@H](CO)NC(=O)[C@H](CCC(N)=O)NC(=O)[C@H](CC(C)C)NC(=O)[C@H](CCCCN)NC(=O)[C@H](CO)NC(=O)[C
@H](CO)NC(=O)[C@H](Cc2cnc[nH]2)NC(C)=O)cc1

$$$$

  SciTegic03142313312D

 60 65  0  0  1  0            999 V2000
   -0.0022   -5.9505    0.0000 C   0  0
   -1.4772   -5.6781    0.0000 C   0  0
   -1.9801   -4.2640    0.0000 C   0  0  1  0  0  0
   -3.4587   -4.5165    0.0000 C   0  0
   -4.4166   -3.3623    0.0000 N   0  0  3  0  0  0
   -5.8952   -3.6148    0.0000 C   0  0
   -6.8532   -2.4605    0.0000 C   0  0
   -6.3326   -1.0538    0.0000 C   0  0
   -7.2906    0.1005    0.0000 C   0  0
   -6.7700    1.5072    0.0000 C   0  0
   -7.7309    2.6601    0.0000 O   0  0
   -9.2091    2.4055    0.0000 C   0  0
   -5.2914    1.7597    0.0000 C   0  0
   -4.7676    3.1662    0.0000 O   0  0
   -3.2887    3.4166    0.0000 C   0  0
   -4.3334    0.6055    0.0000 C   0  0
   -4.8540   -0.8013    0.0000 C   0  0
   -3.8960   -1.9555    0.0000 C   0  0  2  0  0  0
   -2.4174   -1.7030    0.0000 C   0  0
   -1.4595   -2.8572    0.0000 C   0  0  2  0  0  0
   -0.1572   -2.1111    0.0000 C   0  0
    1.1405   -2.8650    0.0000 C   0  0  2  0  0  0
    1.6527   -4.2749    0.0000 C   0  0
    0.6878   -5.4233    0.0000 C   0  0
    1.1999   -6.8332    0.0000 C   0  0
    0.2321   -7.9803    0.0000 O   0  0
   -1.2446   -7.7168    0.0000 C   0  0
    2.6770   -7.0946    0.0000 C   0  0
    3.1923   -8.5042    0.0000 O   0  0
    4.6697   -8.7636    0.0000 C   0  0
    3.6419   -5.9462    0.0000 C   0  0
    3.1298   -4.5363    0.0000 C   0  0
    4.0947   -3.3879    0.0000 C   0  0
    3.5826   -1.9780    0.0000 C   0  0
    2.1056   -1.7166    0.0000 N   0  0
    1.5961   -0.3048    0.0000 C   0  0
    0.6117   -0.1288    0.0000 O   0  0
    2.5632    0.8428    0.0000 O   0  0
    2.0538    2.2545    0.0000 C   0  0
    3.0209    3.4022    0.0000 C   0  0
    2.5138    4.8139    0.0000 C   0  0
    3.4828    5.9590    0.0000 C   0  0
    4.9589    5.6924    0.0000 C   0  0
    5.9307    6.8361    0.0000 N   0  0
    7.4073    6.5672    0.0000 C   0  0
    7.9120    5.1547    0.0000 O   0  0
    8.3791    7.7109    0.0000 C   0  0  2  0  0  0
    7.8770    9.1253    0.0000 C   0  0
    8.8501   10.2679    0.0000 C   0  0
    8.3483   11.6814    0.0000 C   0  0
    9.8336   10.0867    0.0000 C   0  0
    9.8557    7.4420    0.0000 N   0  0
   10.8275    8.5857    0.0000 C   0  0
   10.4910    9.5274    0.0000 O   0  0
   12.3040    8.3169    0.0000 C   0  0  1  0  0  0
   12.8088    6.9044    0.0000 N   0  0
   13.2759    9.4606    0.0000 C   0  0
   14.7516    9.1919    0.0000 O   0  0
    5.4661    4.2807    0.0000 C   0  0
    4.4971    3.1356    0.0000 C   0  0
  1  2  1  0
  3  2  1  1
  3  4  1  0
  5  4  1  4
  5  6  1  0
  6  7  1  0
  7  8  1  0
  8  9  2  0
  9 10  1  0
 10 11  1  0
 11 12  1  0
 10 13  2  0
 13 14  1  0
 14 15  1  0
 13 16  1  0
 16 17  2  0
 17  8  1  0
 17 18  1  0
 18  5  1  0
 18 19  1  6
 19 20  1  0
 20  3  1  0
 20 21  1  6
 22 21  1  1
 22 23  1  0
 23 24  2  0
 24 25  1  0
 25 26  1  0
 26 27  1  0
 25 28  2  0
 28 29  1  0
 29 30  1  0
 28 31  1  0
 31 32  2  0
 32 23  1  0
 32 33  1  0
 33 34  1  0
 34 35  1  0
 35 22  1  0
 35 36  1  0
 36 37  2  0
 36 38  1  0
 38 39  1  0
 39 40  1  0
 40 41  2  0
 41 42  1  0
 42 43  2  0
 43 44  1  0
 44 45  1  0
 45 46  2  0
 45 47  1  0
 47 48  1  6
 48 49  1  0
 49 50  1  0
 49 51  1  0
 47 52  1  0
 52 53  1  0
 53 54  2  0
 53 55  1  0
 55 56  1  6
 55 57  1  0
 57 58  1  0
 43 59  1  0
 59 60  2  0
 60 40  1  0
M  END
> <assay_chembl_id>
CHEMBL4186338

> <assay_description>
Antiproliferative activity against human LNCAP cells expressing PSA after 3 days by MTT assay

> <document_journal>
Bioorg Med Chem

> <molecule_chembl_id>
CHEMBL4218985

> <standard_value>
100

> <IC50_uM>
0.1

> <Activity>
Yes

> <Canonical_Smiles>
CC[C@H]1CN2CCc3cc(OC)c(OC)cc3[C@@H]2C[C@@H]1C[C@@H]1c2cc(OC)c(OC)cc2CCN1C(=O)OCc1ccc(NC(=O)[C@H](CC(C)C)NC(=O)[C@@H](N)CO)cc1

$$$$

  SciTegic03142313312D

 21 22  0  0  0  0            999 V2000
    4.0097   -3.2952    0.0000 C   0  0
    3.1255   -2.0835    0.0000 C   0  0
    1.6332   -2.2426    0.0000 C   0  0  3  0  0  0
    1.0255   -3.6140    0.0000 C   0  0
    0.7500   -1.0323    0.0000 N   0  0
    1.2135    0.3943    0.0000 C   0  0
    0.0000    1.2760    0.0000 C   0  0
   -1.2135    0.3943    0.0000 N   0  0
   -0.7500   -1.0323    0.0000 C   0  0
   -1.6332   -2.2426    0.0000 C   0  0
   -3.1255   -2.0835    0.0000 C   0  0
   -4.0102   -3.2959    0.0000 C   0  0
   -3.4025   -4.6673    0.0000 O   0  0
   -5.5026   -3.1369    0.0000 C   0  0
   -6.3873   -4.3492    0.0000 C   0  0
   -7.8796   -4.1902    0.0000 C   0  0
   -8.6034   -2.8909    0.0000 C   0  0
  -10.0717   -3.1977    0.0000 O   0  0
  -10.2337   -4.6889    0.0000 N   0  0
   -8.8655   -5.3038    0.0000 C   0  0
   -8.5500   -6.7702    0.0000 C   0  0
  1  2  1  0
  2  3  1  0
  3  4  1  4
  3  5  1  0
  5  6  1  0
  6  7  2  0
  7  8  1  0
  8  9  2  0
  9  5  1  0
  9 10  1  0
 10 11  2  0
 11 12  1  0
 12 13  2  0
 12 14  1  0
 14 15  2  0
 15 16  1  0
 16 17  2  0
 17 18  1  0
 18 19  1  0
 19 20  2  0
 20 16  1  0
 20 21  1  0
M  END
> <assay_chembl_id>
CHEMBL4191525

> <assay_description>
Antiproliferative activity against human LNCAP cells assessed as decrease in cell viability after 3 days by WST assay

> <document_journal>
Eur J Med Chem

> <molecule_chembl_id>
CHEMBL4207359

> <standard_value>
240

> <IC50_uM>
0.24

> <Activity>
Yes

> <Canonical_Smiles>
CCC(C)n1ccnc1/C=C/C(=O)/C=C/c1conc1C

$$$$

  SciTegic03142313312D

 25 26  0  0  0  0            999 V2000
    4.0097   -3.2952    0.0000 C   0  0
    3.1255   -2.0835    0.0000 C   0  0
    1.6332   -2.2426    0.0000 C   0  0  3  0  0  0
    1.0255   -3.6140    0.0000 C   0  0
    0.7500   -1.0323    0.0000 N   0  0
    1.2135    0.3943    0.0000 C   0  0
    0.0000    1.2760    0.0000 C   0  0
   -1.2135    0.3943    0.0000 N   0  0
   -0.7500   -1.0323    0.0000 C   0  0
   -1.6332   -2.2426    0.0000 C   0  0
   -3.1255   -2.0835    0.0000 C   0  0
   -4.0102   -3.2959    0.0000 C   0  0
   -3.4025   -4.6673    0.0000 O   0  0
   -5.5026   -3.1369    0.0000 C   0  0
   -6.3873   -4.3492    0.0000 C   0  0
   -7.8796   -4.1902    0.0000 C   0  0
   -8.6034   -2.8909    0.0000 S   0  0
  -10.0717   -3.1977    0.0000 C   0  0
  -11.1829   -2.1901    0.0000 C   0  0
  -10.2337   -4.6889    0.0000 N   0  0
   -8.8655   -5.3038    0.0000 C   0  0
   -8.5479   -6.7679    0.0000 C   0  0
   -9.6577   -7.7770    0.0000 F   0  0
   -7.1192   -7.2249    0.0000 F   0  0
   -8.2291   -8.2336    0.0000 F   0  0
  1  2  1  0
  2  3  1  0
  3  4  1  4
  3  5  1  0
  5  6  1  0
  6  7  2  0
  7  8  1  0
  8  9  2  0
  9  5  1  0
  9 10  1  0
 10 11  2  0
 11 12  1  0
 12 13  2  0
 12 14  1  0
 14 15  2  0
 15 16  1  0
 16 17  1  0
 17 18  1  0
 18 19  1  0
 18 20  2  0
 20 21  1  0
 21 16  2  0
 21 22  1  0
 22 23  1  0
 22 24  1  0
 22 25  1  0
M  END
> <assay_chembl_id>
CHEMBL4191525

> <assay_description>
Antiproliferative activity against human LNCAP cells assessed as decrease in cell viability after 3 days by WST assay

> <document_journal>
Eur J Med Chem

> <molecule_chembl_id>
CHEMBL4206838

> <standard_value>
220

> <IC50_uM>
0.22

> <Activity>
Yes

> <Canonical_Smiles>
CCC(C)n1ccnc1/C=C/C(=O)/C=C/c1sc(C)nc1C(F)(F)F

$$$$

  SciTegic03142313312D

 21 22  0  0  0  0            999 V2000
    4.0097   -3.2952    0.0000 C   0  0
    3.1255   -2.0835    0.0000 C   0  0
    1.6332   -2.2426    0.0000 C   0  0  3  0  0  0
    1.0255   -3.6140    0.0000 C   0  0
    0.7500   -1.0323    0.0000 N   0  0
    1.2135    0.3943    0.0000 C   0  0
    0.0000    1.2760    0.0000 C   0  0
   -1.2135    0.3943    0.0000 N   0  0
   -0.7500   -1.0323    0.0000 C   0  0
   -1.6332   -2.2426    0.0000 C   0  0
   -3.1255   -2.0835    0.0000 C   0  0
   -4.0102   -3.2959    0.0000 C   0  0
   -3.4025   -4.6673    0.0000 O   0  0
   -5.5026   -3.1369    0.0000 C   0  0
   -6.3873   -4.3492    0.0000 C   0  0
   -7.8796   -4.1902    0.0000 C   0  0
   -8.8655   -5.3038    0.0000 C   0  0
  -10.2337   -4.6889    0.0000 C   0  0
  -11.5353   -5.4343    0.0000 C   0  0
  -10.0717   -3.1977    0.0000 O   0  0
   -8.6034   -2.8909    0.0000 N   0  0
  1  2  1  0
  2  3  1  0
  3  4  1  4
  3  5  1  0
  5  6  1  0
  6  7  2  0
  7  8  1  0
  8  9  2  0
  9  5  1  0
  9 10  1  0
 10 11  2  0
 11 12  1  0
 12 13  2  0
 12 14  1  0
 14 15  2  0
 15 16  1  0
 16 17  1  0
 17 18  2  0
 18 19  1  0
 18 20  1  0
 20 21  1  0
 21 16  2  0
M  END
> <assay_chembl_id>
CHEMBL4191525

> <assay_description>
Antiproliferative activity against human LNCAP cells assessed as decrease in cell viability after 3 days by WST assay

> <document_journal>
Eur J Med Chem

> <molecule_chembl_id>
CHEMBL4211719

> <standard_value>
240

> <IC50_uM>
0.24

> <Activity>
Yes

> <Canonical_Smiles>
CCC(C)n1ccnc1/C=C/C(=O)/C=C/c1cc(C)on1

$$$$

  SciTegic03142313312D

 22 23  0  0  0  0            999 V2000
    4.0097   -3.2952    0.0000 C   0  0
    3.1255   -2.0835    0.0000 C   0  0
    1.6332   -2.2426    0.0000 C   0  0  3  0  0  0
    1.0255   -3.6140    0.0000 C   0  0
    0.7500   -1.0323    0.0000 N   0  0
    1.2135    0.3943    0.0000 C   0  0
    0.0000    1.2760    0.0000 C   0  0
   -1.2135    0.3943    0.0000 N   0  0
   -0.7500   -1.0323    0.0000 C   0  0
   -1.6332   -2.2426    0.0000 C   0  0
   -3.1255   -2.0835    0.0000 C   0  0
   -4.0102   -3.2959    0.0000 C   0  0
   -3.4025   -4.6673    0.0000 O   0  0
   -5.5026   -3.1369    0.0000 C   0  0
   -6.3873   -4.3492    0.0000 C   0  0
   -7.8796   -4.1902    0.0000 C   0  0
   -8.6034   -2.8909    0.0000 N   0  0
  -10.0717   -3.1977    0.0000 N   0  0
  -11.1829   -2.1901    0.0000 C   0  0
  -10.2337   -4.6889    0.0000 C   0  0
   -8.8655   -5.3038    0.0000 C   0  0
   -8.5500   -6.7702    0.0000 Br  0  0
  1  2  1  0
  2  3  1  0
  3  4  1  4
  3  5  1  0
  5  6  1  0
  6  7  2  0
  7  8  1  0
  8  9  2  0
  9  5  1  0
  9 10  1  0
 10 11  2  0
 11 12  1  0
 12 13  2  0
 12 14  1  0
 14 15  2  0
 15 16  1  0
 16 17  2  0
 17 18  1  0
 18 19  1  0
 18 20  1  0
 20 21  2  0
 21 16  1  0
 21 22  1  0
M  END
> <assay_chembl_id>
CHEMBL4191525

> <assay_description>
Antiproliferative activity against human LNCAP cells assessed as decrease in cell viability after 3 days by WST assay

> <document_journal>
Eur J Med Chem

> <molecule_chembl_id>
CHEMBL4211442

> <standard_value>
310

> <IC50_uM>
0.31

> <Activity>
Yes

> <Canonical_Smiles>
CCC(C)n1ccnc1/C=C/C(=O)/C=C/c1nn(C)cc1Br

$$$$

  SciTegic03142313312D

 20 21  0  0  0  0            999 V2000
    4.0097   -3.2952    0.0000 C   0  0
    3.1255   -2.0835    0.0000 C   0  0
    1.6332   -2.2426    0.0000 C   0  0  3  0  0  0
    1.0255   -3.6140    0.0000 C   0  0
    0.7500   -1.0323    0.0000 N   0  0
    1.2135    0.3943    0.0000 C   0  0
    0.0000    1.2760    0.0000 C   0  0
   -1.2135    0.3943    0.0000 N   0  0
   -0.7500   -1.0323    0.0000 C   0  0
   -1.6332   -2.2426    0.0000 C   0  0
   -3.1255   -2.0835    0.0000 C   0  0
   -4.0102   -3.2959    0.0000 C   0  0
   -3.4025   -4.6673    0.0000 O   0  0
   -5.5026   -3.1369    0.0000 C   0  0
   -6.3873   -4.3492    0.0000 C   0  0
   -7.8796   -4.1902    0.0000 C   0  0
   -8.8655   -5.3038    0.0000 N   0  0
  -10.2337   -4.6889    0.0000 C   0  0
  -10.0717   -3.1977    0.0000 C   0  0
   -8.6034   -2.8909    0.0000 S   0  0
  1  2  1  0
  2  3  1  0
  3  4  1  4
  3  5  1  0
  5  6  1  0
  6  7  2  0
  7  8  1  0
  8  9  2  0
  9  5  1  0
  9 10  1  0
 10 11  2  0
 11 12  1  0
 12 13  2  0
 12 14  1  0
 14 15  2  0
 15 16  1  0
 16 17  2  0
 17 18  1  0
 18 19  2  0
 19 20  1  0
 20 16  1  0
M  END
> <assay_chembl_id>
CHEMBL4191525

> <assay_description>
Antiproliferative activity against human LNCAP cells assessed as decrease in cell viability after 3 days by WST assay

> <document_journal>
Eur J Med Chem

> <molecule_chembl_id>
CHEMBL4206557

> <standard_value>
170

> <IC50_uM>
0.17

> <Activity>
Yes

> <Canonical_Smiles>
CCC(C)n1ccnc1/C=C/C(=O)/C=C/c1nccs1

$$$$

  SciTegic03142313312D

 27 28  0  0  0  0            999 V2000
   10.3654   -8.4443    0.0000 C   0  0
    8.9398   -8.9109    0.0000 C   0  0
    7.8217   -7.9098    0.0000 C   0  0  3  0  0  0
    8.1299   -6.4418    0.0000 C   0  0
    6.3978   -8.3758    0.0000 N   0  0
    5.9293   -9.8007    0.0000 C   0  0
    4.4293   -9.7955    0.0000 C   0  0
    3.9707   -8.3673    0.0000 N   0  0
    5.1873   -7.5117    0.0000 C   0  0
    5.1894   -6.0109    0.0000 C   0  0
    3.8912   -5.2578    0.0000 C   0  0
    3.8933   -3.7570    0.0000 C   0  0
    5.1937   -3.0093    0.0000 O   0  0
    2.5951   -3.0039    0.0000 C   0  0
    2.5973   -1.5031    0.0000 C   0  0
    1.2990   -0.7500    0.0000 C   0  0
    1.2990    0.7500    0.0000 C   0  0
    0.0000    1.5000    0.0000 C   0  0
    0.0031    3.0008    0.0000 O   0  0
    1.3032    3.7490    0.0000 C   0  0
   -1.2990    0.7500    0.0000 C   0  0
   -2.6003    1.4977    0.0000 O   0  0
   -3.8983    0.7459    0.0000 C   0  0
   -1.2990   -0.7500    0.0000 C   0  0
   -2.5972   -1.5031    0.0000 O   0  0
   -2.5951   -3.0031    0.0000 C   0  0
    0.0000   -1.5000    0.0000 C   0  0
  1  2  1  0
  2  3  1  0
  3  4  1  4
  3  5  1  0
  5  6  1  0
  6  7  2  0
  7  8  1  0
  8  9  2  0
  9  5  1  0
  9 10  1  0
 10 11  2  0
 11 12  1  0
 12 13  2  0
 12 14  1  0
 14 15  2  0
 15 16  1  0
 16 17  2  0
 17 18  1  0
 18 19  1  0
 19 20  1  0
 18 21  2  0
 21 22  1  0
 22 23  1  0
 21 24  1  0
 24 25  1  0
 25 26  1  0
 24 27  2  0
 27 16  1  0
M  END
> <assay_chembl_id>
CHEMBL4191525

> <assay_description>
Antiproliferative activity against human LNCAP cells assessed as decrease in cell viability after 3 days by WST assay

> <document_journal>
Eur J Med Chem

> <molecule_chembl_id>
CHEMBL4202475

> <standard_value>
660

> <IC50_uM>
0.66

> <Activity>
Yes

> <Canonical_Smiles>
CCC(C)n1ccnc1/C=C/C(=O)/C=C/c1cc(OC)c(OC)c(OC)c1

$$$$

  SciTegic03142313312D

 25 26  0  0  0  0            999 V2000
   10.3654   -8.4443    0.0000 C   0  0
    8.9398   -8.9109    0.0000 C   0  0
    7.8217   -7.9098    0.0000 C   0  0  3  0  0  0
    8.1299   -6.4418    0.0000 C   0  0
    6.3978   -8.3758    0.0000 N   0  0
    5.9293   -9.8007    0.0000 C   0  0
    4.4293   -9.7955    0.0000 C   0  0
    3.9707   -8.3673    0.0000 N   0  0
    5.1873   -7.5117    0.0000 C   0  0
    5.1894   -6.0109    0.0000 C   0  0
    3.8912   -5.2578    0.0000 C   0  0
    3.8933   -3.7570    0.0000 C   0  0
    5.1937   -3.0093    0.0000 O   0  0
    2.5951   -3.0039    0.0000 C   0  0
    2.5973   -1.5031    0.0000 C   0  0
    1.2990   -0.7500    0.0000 C   0  0
    1.2990    0.7500    0.0000 C   0  0
    0.0000    1.5000    0.0000 C   0  0
   -1.2990    0.7500    0.0000 C   0  0
   -2.5973    1.5031    0.0000 O   0  0
   -2.5951    3.0031    0.0000 C   0  0
   -1.2990   -0.7500    0.0000 C   0  0
   -2.5972   -1.5031    0.0000 O   0  0
   -2.5951   -3.0031    0.0000 C   0  0
    0.0000   -1.5000    0.0000 C   0  0
  1  2  1  0
  2  3  1  0
  3  4  1  4
  3  5  1  0
  5  6  1  0
  6  7  2  0
  7  8  1  0
  8  9  2  0
  9  5  1  0
  9 10  1  0
 10 11  2  0
 11 12  1  0
 12 13  2  0
 12 14  1  0
 14 15  2  0
 15 16  1  0
 16 17  2  0
 17 18  1  0
 18 19  2  0
 19 20  1  0
 20 21  1  0
 19 22  1  0
 22 23  1  0
 23 24  1  0
 22 25  2  0
 25 16  1  0
M  END
> <assay_chembl_id>
CHEMBL4191525

> <assay_description>
Antiproliferative activity against human LNCAP cells assessed as decrease in cell viability after 3 days by WST assay

> <document_journal>
Eur J Med Chem

> <molecule_chembl_id>
CHEMBL4203962

> <standard_value>
910

> <IC50_uM>
0.91

> <Activity>
Yes

> <Canonical_Smiles>
CCC(C)n1ccnc1/C=C/C(=O)/C=C/c1ccc(OC)c(OC)c1

$$$$

  SciTegic03142313312D

 22 23  0  0  0  0            999 V2000
   10.3654   -8.4443    0.0000 C   0  0
    8.9398   -8.9109    0.0000 C   0  0
    7.8217   -7.9098    0.0000 C   0  0  3  0  0  0
    8.1299   -6.4418    0.0000 C   0  0
    6.3978   -8.3758    0.0000 N   0  0
    5.9293   -9.8007    0.0000 C   0  0
    4.4293   -9.7955    0.0000 C   0  0
    3.9707   -8.3673    0.0000 N   0  0
    5.1873   -7.5117    0.0000 C   0  0
    5.1894   -6.0109    0.0000 C   0  0
    3.8912   -5.2578    0.0000 C   0  0
    3.8933   -3.7570    0.0000 C   0  0
    5.1937   -3.0093    0.0000 O   0  0
    2.5951   -3.0039    0.0000 C   0  0
    2.5973   -1.5031    0.0000 C   0  0
    1.2990   -0.7500    0.0000 C   0  0
    1.2990    0.7500    0.0000 C   0  0
    0.0000    1.5000    0.0000 C   0  0
   -1.2990    0.7500    0.0000 C   0  0
   -1.2990   -0.7500    0.0000 C   0  0
   -2.5981   -1.5000    0.0000 C   0  0
    0.0000   -1.5000    0.0000 N   0  0
  1  2  1  0
  2  3  1  0
  3  4  1  4
  3  5  1  0
  5  6  1  0
  6  7  2  0
  7  8  1  0
  8  9  2  0
  9  5  1  0
  9 10  1  0
 10 11  2  0
 11 12  1  0
 12 13  2  0
 12 14  1  0
 14 15  2  0
 15 16  1  0
 16 17  2  0
 17 18  1  0
 18 19  2  0
 19 20  1  0
 20 21  1  0
 20 22  2  0
 22 16  1  0
M  END
> <assay_chembl_id>
CHEMBL4191525

> <assay_description>
Antiproliferative activity against human LNCAP cells assessed as decrease in cell viability after 3 days by WST assay

> <document_journal>
Eur J Med Chem

> <molecule_chembl_id>
CHEMBL4215642

> <standard_value>
260

> <IC50_uM>
0.26

> <Activity>
Yes

> <Canonical_Smiles>
CCC(C)n1ccnc1/C=C/C(=O)/C=C/c1cccc(C)n1

$$$$

  SciTegic03142313312D

 17 18  0  0  0  0            999 V2000
    5.1937   -3.0093    0.0000 O   0  0
    3.8933   -3.7570    0.0000 C   0  0
    2.5951   -3.0039    0.0000 C   0  0
    2.5973   -1.5031    0.0000 C   0  0
    1.2990   -0.7500    0.0000 C   0  0
    1.2990    0.7500    0.0000 C   0  0
    0.0000    1.5000    0.0000 C   0  0
   -1.2990    0.7500    0.0000 C   0  0
   -1.2990   -0.7500    0.0000 C   0  0
    0.0000   -1.5000    0.0000 N   0  0
    3.8912   -5.2578    0.0000 C   0  0
    5.1894   -6.0109    0.0000 C   0  0
    5.1873   -7.5117    0.0000 C   0  0
    6.3978   -8.3758    0.0000 N   0  0
    5.9293   -9.8007    0.0000 C   0  0
    4.4293   -9.7955    0.0000 C   0  0
    3.9707   -8.3673    0.0000 S   0  0
  1  2  2  0
  2  3  1  0
  3  4  2  0
  4  5  1  0
  5  6  2  0
  6  7  1  0
  7  8  2  0
  8  9  1  0
  9 10  2  0
 10  5  1  0
  2 11  1  0
 11 12  2  0
 12 13  1  0
 13 14  2  0
 14 15  1  0
 15 16  2  0
 16 17  1  0
 17 13  1  0
M  END
> <assay_chembl_id>
CHEMBL4191525

> <assay_description>
Antiproliferative activity against human LNCAP cells assessed as decrease in cell viability after 3 days by WST assay

> <document_journal>
Eur J Med Chem

> <molecule_chembl_id>
CHEMBL4218527

> <standard_value>
450

> <IC50_uM>
0.45

> <Activity>
Yes

> <Canonical_Smiles>
O=C(/C=C/c1ccccn1)/C=C/c1nccs1

$$$$

  SciTegic03142313312D

 21 22  0  0  0  0            999 V2000
   10.3654   -8.4443    0.0000 C   0  0
    8.9398   -8.9109    0.0000 C   0  0
    7.8217   -7.9098    0.0000 C   0  0  3  0  0  0
    8.1299   -6.4418    0.0000 C   0  0
    6.3978   -8.3758    0.0000 N   0  0
    5.9293   -9.8007    0.0000 C   0  0
    4.4293   -9.7955    0.0000 C   0  0
    3.9707   -8.3673    0.0000 N   0  0
    5.1873   -7.5117    0.0000 C   0  0
    5.1894   -6.0109    0.0000 C   0  0
    3.8912   -5.2578    0.0000 C   0  0
    3.8933   -3.7570    0.0000 C   0  0
    5.1937   -3.0093    0.0000 O   0  0
    2.5951   -3.0039    0.0000 C   0  0
    2.5973   -1.5031    0.0000 C   0  0
    1.2990   -0.7500    0.0000 C   0  0
    1.2990    0.7500    0.0000 C   0  0
    0.0000    1.5000    0.0000 C   0  0
   -1.2990    0.7500    0.0000 C   0  0
   -1.2990   -0.7500    0.0000 C   0  0
    0.0000   -1.5000    0.0000 N   0  0
  1  2  1  0
  2  3  1  0
  3  4  1  4
  3  5  1  0
  5  6  1  0
  6  7  2  0
  7  8  1  0
  8  9  2  0
  9  5  1  0
  9 10  1  0
 10 11  2  0
 11 12  1  0
 12 13  2  0
 12 14  1  0
 14 15  2  0
 15 16  1  0
 16 17  2  0
 17 18  1  0
 18 19  2  0
 19 20  1  0
 20 21  2  0
 21 16  1  0
M  END
> <assay_chembl_id>
CHEMBL4191525

> <assay_description>
Antiproliferative activity against human LNCAP cells assessed as decrease in cell viability after 3 days by WST assay

> <document_journal>
Eur J Med Chem

> <molecule_chembl_id>
CHEMBL4211207

> <standard_value>
240

> <IC50_uM>
0.24

> <Activity>
Yes

> <Canonical_Smiles>
CCC(C)n1ccnc1/C=C/C(=O)/C=C/c1ccccn1

$$$$

  SciTegic03142313312D

 19 20  0  0  0  0            999 V2000
    3.5434  -11.0060    0.0000 C   0  0
    4.4293   -9.7955    0.0000 N   0  0
    5.9293   -9.8007    0.0000 C   0  0
    6.3978   -8.3758    0.0000 C   0  0
    7.8232   -7.9087    0.0000 Br  0  0
    5.1873   -7.5117    0.0000 C   0  0
    5.1894   -6.0109    0.0000 C   0  0
    3.8912   -5.2578    0.0000 C   0  0
    3.8933   -3.7570    0.0000 C   0  0
    5.1937   -3.0093    0.0000 O   0  0
    2.5951   -3.0039    0.0000 C   0  0
    2.5973   -1.5031    0.0000 C   0  0
    1.2990   -0.7500    0.0000 C   0  0
    1.2990    0.7500    0.0000 C   0  0
    0.0000    1.5000    0.0000 C   0  0
   -1.2990    0.7500    0.0000 C   0  0
   -1.2990   -0.7500    0.0000 C   0  0
    0.0000   -1.5000    0.0000 N   0  0
    3.9707   -8.3673    0.0000 N   0  0
  1  2  1  0
  2  3  1  0
  3  4  2  0
  4  5  1  0
  4  6  1  0
  6  7  1  0
  7  8  2  0
  8  9  1  0
  9 10  2  0
  9 11  1  0
 11 12  2  0
 12 13  1  0
 13 14  2  0
 14 15  1  0
 15 16  2  0
 16 17  1  0
 17 18  2  0
 18 13  1  0
  6 19  2  0
 19  2  1  0
M  END
> <assay_chembl_id>
CHEMBL4191525

> <assay_description>
Antiproliferative activity against human LNCAP cells assessed as decrease in cell viability after 3 days by WST assay

> <document_journal>
Eur J Med Chem

> <molecule_chembl_id>
CHEMBL4210793

> <standard_value>
220

> <IC50_uM>
0.22

> <Activity>
Yes

> <Canonical_Smiles>
Cn1cc(Br)c(/C=C/C(=O)/C=C/c2ccccn2)n1

$$$$

  SciTegic03142313312D

 18 19  0  0  0  0            999 V2000
    6.8068  -11.0173    0.0000 C   0  0
    5.9293   -9.8007    0.0000 C   0  0
    6.3978   -8.3758    0.0000 C   0  0
    5.1873   -7.5117    0.0000 C   0  0
    5.1894   -6.0109    0.0000 C   0  0
    3.8912   -5.2578    0.0000 C   0  0
    3.8933   -3.7570    0.0000 C   0  0
    5.1937   -3.0093    0.0000 O   0  0
    2.5951   -3.0039    0.0000 C   0  0
    2.5973   -1.5031    0.0000 C   0  0
    1.2990   -0.7500    0.0000 C   0  0
    1.2990    0.7500    0.0000 C   0  0
    0.0000    1.5000    0.0000 C   0  0
   -1.2990    0.7500    0.0000 C   0  0
   -1.2990   -0.7500    0.0000 C   0  0
    0.0000   -1.5000    0.0000 N   0  0
    3.9707   -8.3673    0.0000 N   0  0
    4.4293   -9.7955    0.0000 O   0  0
  1  2  1  0
  2  3  2  0
  3  4  1  0
  4  5  1  0
  5  6  2  0
  6  7  1  0
  7  8  2  0
  7  9  1  0
  9 10  2  0
 10 11  1  0
 11 12  2  0
 12 13  1  0
 13 14  2  0
 14 15  1  0
 15 16  2  0
 16 11  1  0
  4 17  2  0
 17 18  1  0
 18  2  1  0
M  END
> <assay_chembl_id>
CHEMBL4191525

> <assay_description>
Antiproliferative activity against human LNCAP cells assessed as decrease in cell viability after 3 days by WST assay

> <document_journal>
Eur J Med Chem

> <molecule_chembl_id>
CHEMBL4205915

> <standard_value>
310

> <IC50_uM>
0.31

> <Activity>
Yes

> <Canonical_Smiles>
Cc1cc(/C=C/C(=O)/C=C/c2ccccn2)no1

$$$$

  SciTegic03142313312D

 26 28  0  0  0  0            999 V2000
    6.4451   -1.8434    0.0000 C   0  0
    4.9531   -1.9978    0.0000 C   0  0
    3.9511   -0.8815    0.0000 N   0  0
    2.5987   -1.5004    0.0000 C   0  0
    1.2990   -0.7500    0.0000 C   0  0
    1.2990    0.7500    0.0000 C   0  0
    0.0000    1.5000    0.0000 C   0  0
   -1.2990    0.7500    0.0000 N   0  0
   -1.2990   -0.7500    0.0000 C   0  0
    0.0000   -1.5000    0.0000 C   0  0
    2.7343   -2.9815    0.0000 S   0  0
    4.2010   -3.2956    0.0000 C   0  0
    4.8054   -4.6666    0.0000 C   0  0
    3.9195   -5.8781    0.0000 C   0  0
    4.5250   -7.2514    0.0000 C   0  0
    6.0162   -7.4132    0.0000 O   0  0
    3.6391   -8.4629    0.0000 C   0  0
    4.2445   -9.8362    0.0000 C   0  0
    3.3587  -11.0477    0.0000 C   0  0
    1.8716  -11.0225    0.0000 N   0  0
    1.4009  -12.4467    0.0000 C   0  0
    2.6099  -13.3345    0.0000 C   0  0
    3.8279  -12.4590    0.0000 N   0  0
    5.2530  -12.9213    0.0000 C   0  0
    5.5666  -14.3881    0.0000 C   0  0
    6.3668  -11.9166    0.0000 C   0  0
  1  2  1  0
  2  3  1  0
  3  4  2  0
  4  5  1  0
  5  6  2  0
  6  7  1  0
  7  8  2  0
  8  9  1  0
  9 10  2  0
 10  5  1  0
  4 11  1  0
 11 12  1  0
 12  2  2  0
 12 13  1  0
 13 14  2  0
 14 15  1  0
 15 16  2  0
 15 17  1  0
 17 18  2  0
 18 19  1  0
 19 20  2  0
 20 21  1  0
 21 22  2  0
 22 23  1  0
 23 19  1  0
 23 24  1  0
 24 25  1  0
 24 26  1  0
M  END
> <assay_chembl_id>
CHEMBL4191525

> <assay_description>
Antiproliferative activity against human LNCAP cells assessed as decrease in cell viability after 3 days by WST assay

> <document_journal>
Eur J Med Chem

> <molecule_chembl_id>
CHEMBL4205315

> <standard_value>
540

> <IC50_uM>
0.54

> <Activity>
Yes

> <Canonical_Smiles>
Cc1nc(-c2ccncc2)sc1/C=C/C(=O)/C=C/c1nccn1C(C)C

$$$$

  SciTegic03142313312D

 26 28  0  0  0  0            999 V2000
    9.9624  -10.7610    0.0000 C   0  0
    8.9618   -9.6435    0.0000 C   0  0
    7.4939   -9.9518    0.0000 C   0  0
    9.4278   -8.2196    0.0000 N   0  0
   10.8528   -7.7511    0.0000 C   0  0
   10.8475   -6.2511    0.0000 C   0  0
    9.4193   -5.7926    0.0000 N   0  0
    8.5637   -7.0091    0.0000 C   0  0
    7.0629   -7.0113    0.0000 C   0  0
    6.3098   -5.7131    0.0000 C   0  0
    4.8090   -5.7153    0.0000 C   0  0
    4.0613   -7.0156    0.0000 O   0  0
    4.0559   -4.4171    0.0000 C   0  0
    2.5551   -4.4192    0.0000 C   0  0
    1.8032   -3.1233    0.0000 C   0  0
    2.4133   -1.7530    0.0000 N   0  0
    1.2990   -0.7500    0.0000 C   0  0
    1.2990    0.7500    0.0000 C   0  0
    0.0000    1.5000    0.0000 C   0  0
   -1.2990    0.7500    0.0000 C   0  0
   -1.2990   -0.7500    0.0000 C   0  0
    0.0000   -1.5000    0.0000 C   0  0
    0.3114   -2.9665    0.0000 N   0  0
   -0.6890   -4.0818    0.0000 C   0  0
   -0.2237   -5.5078    0.0000 C   0  0
   -2.1567   -3.7722    0.0000 C   0  0
  1  2  1  0
  2  3  1  0
  2  4  1  0
  4  5  1  0
  5  6  2  0
  6  7  1  0
  7  8  2  0
  8  4  1  0
  8  9  1  0
  9 10  2  0
 10 11  1  0
 11 12  2  0
 11 13  1  0
 13 14  2  0
 14 15  1  0
 15 16  2  0
 16 17  1  0
 17 18  2  0
 18 19  1  0
 19 20  2  0
 20 21  1  0
 21 22  2  0
 22 17  1  0
 22 23  1  0
 23 15  1  0
 23 24  1  0
 24 25  1  0
 24 26  1  0
M  END
> <assay_chembl_id>
CHEMBL4191525

> <assay_description>
Antiproliferative activity against human LNCAP cells assessed as decrease in cell viability after 3 days by WST assay

> <document_journal>
Eur J Med Chem

> <molecule_chembl_id>
CHEMBL4212601

> <standard_value>
260

> <IC50_uM>
0.26

> <Activity>
Yes

> <Canonical_Smiles>
CC(C)n1ccnc1/C=C/C(=O)/C=C/c1nc2ccccc2n1C(C)C

$$$$

  SciTegic03142313312D

 28 30  0  0  0  0            999 V2000
    9.4964  -12.1872    0.0000 C   0  0
    9.9630  -10.7616    0.0000 C   0  0
    8.9618   -9.6435    0.0000 C   0  0  3  0  0  0
    7.4939   -9.9518    0.0000 C   0  0
    9.4278   -8.2196    0.0000 N   0  0
   10.8528   -7.7511    0.0000 C   0  0
   10.8475   -6.2511    0.0000 C   0  0
    9.4193   -5.7926    0.0000 N   0  0
    8.5637   -7.0091    0.0000 C   0  0
    7.0629   -7.0113    0.0000 C   0  0
    6.3098   -5.7131    0.0000 C   0  0
    4.8090   -5.7153    0.0000 C   0  0
    4.0613   -7.0156    0.0000 O   0  0
    4.0559   -4.4171    0.0000 C   0  0
    2.5551   -4.4192    0.0000 C   0  0
    1.8032   -3.1233    0.0000 C   0  0
    2.4133   -1.7530    0.0000 N   0  0
    1.2990   -0.7500    0.0000 C   0  0
    1.2990    0.7500    0.0000 C   0  0
    0.0000    1.5000    0.0000 C   0  0
   -1.2990    0.7500    0.0000 C   0  0
   -1.2990   -0.7500    0.0000 C   0  0
    0.0000   -1.5000    0.0000 C   0  0
    0.3114   -2.9665    0.0000 N   0  0
   -0.6890   -4.0818    0.0000 C   0  0  3  0  0  0
   -2.1567   -3.7722    0.0000 C   0  0
   -0.2234   -5.5086    0.0000 C   0  0
   -1.2250   -6.6252    0.0000 C   0  0
  1  2  1  0
  2  3  1  0
  3  4  1  4
  3  5  1  0
  5  6  1  0
  6  7  2  0
  7  8  1  0
  8  9  2  0
  9  5  1  0
  9 10  1  0
 10 11  2  0
 11 12  1  0
 12 13  2  0
 12 14  1  0
 14 15  2  0
 15 16  1  0
 16 17  2  0
 17 18  1  0
 18 19  2  0
 19 20  1  0
 20 21  2  0
 21 22  1  0
 22 23  2  0
 23 18  1  0
 23 24  1  0
 24 16  1  0
 24 25  1  0
 25 26  1  4
 25 27  1  0
 27 28  1  0
M  END
> <assay_chembl_id>
CHEMBL4191525

> <assay_description>
Antiproliferative activity against human LNCAP cells assessed as decrease in cell viability after 3 days by WST assay

> <document_journal>
Eur J Med Chem

> <molecule_chembl_id>
CHEMBL4217554

> <standard_value>
330

> <IC50_uM>
0.33

> <Activity>
Yes

> <Canonical_Smiles>
CCC(C)n1ccnc1/C=C/C(=O)/C=C/c1nc2ccccc2n1C(C)CC

$$$$

  SciTegic03142313312D

 28 30  0  0  0  0            999 V2000
    9.4964  -12.1872    0.0000 C   0  0
    9.9630  -10.7616    0.0000 C   0  0
   11.4310  -10.4534    0.0000 C   0  0
    8.9618   -9.6435    0.0000 C   0  0
    9.4278   -8.2196    0.0000 N   0  0
   10.8528   -7.7511    0.0000 C   0  0
   10.8475   -6.2511    0.0000 C   0  0
    9.4193   -5.7926    0.0000 N   0  0
    8.5637   -7.0091    0.0000 C   0  0
    7.0629   -7.0113    0.0000 C   0  0
    6.3098   -5.7131    0.0000 C   0  0
    4.8090   -5.7153    0.0000 C   0  0
    4.0613   -7.0156    0.0000 O   0  0
    4.0559   -4.4171    0.0000 C   0  0
    2.5551   -4.4192    0.0000 C   0  0
    1.8032   -3.1233    0.0000 C   0  0
    2.4133   -1.7530    0.0000 N   0  0
    1.2990   -0.7500    0.0000 C   0  0
    1.2990    0.7500    0.0000 C   0  0
    0.0000    1.5000    0.0000 C   0  0
   -1.2990    0.7500    0.0000 C   0  0
   -1.2990   -0.7500    0.0000 C   0  0
    0.0000   -1.5000    0.0000 C   0  0
    0.3114   -2.9665    0.0000 N   0  0
   -0.6890   -4.0818    0.0000 C   0  0
   -0.2234   -5.5086    0.0000 C   0  0
   -1.2250   -6.6252    0.0000 C   0  0
    1.2443   -5.8182    0.0000 C   0  0
  1  2  1  0
  2  3  1  0
  2  4  1  0
  4  5  1  0
  5  6  1  0
  6  7  2  0
  7  8  1  0
  8  9  2  0
  9  5  1  0
  9 10  1  0
 10 11  2  0
 11 12  1  0
 12 13  2  0
 12 14  1  0
 14 15  2  0
 15 16  1  0
 16 17  2  0
 17 18  1  0
 18 19  2  0
 19 20  1  0
 20 21  2  0
 21 22  1  0
 22 23  2  0
 23 18  1  0
 23 24  1  0
 24 16  1  0
 24 25  1  0
 25 26  1  0
 26 27  1  0
 26 28  1  0
M  END
> <assay_chembl_id>
CHEMBL4191525

> <assay_description>
Antiproliferative activity against human LNCAP cells assessed as decrease in cell viability after 3 days by WST assay

> <document_journal>
Eur J Med Chem

> <molecule_chembl_id>
CHEMBL4208223

> <standard_value>
560

> <IC50_uM>
0.56

> <Activity>
Yes

> <Canonical_Smiles>
CC(C)Cn1ccnc1/C=C/C(=O)/C=C/c1nc2ccccc2n1CC(C)C

$$$$

  SciTegic03142313312D

 30 32  0  0  0  0            999 V2000
   10.4967  -13.3055    0.0000 C   0  0
    9.4962  -12.1880    0.0000 C   0  0
    8.0282  -12.4963    0.0000 C   0  0
    9.9630  -10.7616    0.0000 C   0  0
    8.9618   -9.6435    0.0000 C   0  0
    9.4278   -8.2196    0.0000 N   0  0
   10.8528   -7.7511    0.0000 C   0  0
   10.8475   -6.2511    0.0000 C   0  0
    9.4193   -5.7926    0.0000 N   0  0
    8.5637   -7.0091    0.0000 C   0  0
    7.0629   -7.0113    0.0000 C   0  0
    6.3098   -5.7131    0.0000 C   0  0
    4.8090   -5.7153    0.0000 C   0  0
    4.0613   -7.0156    0.0000 O   0  0
    4.0559   -4.4171    0.0000 C   0  0
    2.5551   -4.4192    0.0000 C   0  0
    1.8032   -3.1233    0.0000 C   0  0
    2.4133   -1.7530    0.0000 N   0  0
    1.2990   -0.7500    0.0000 C   0  0
    1.2990    0.7500    0.0000 C   0  0
    0.0000    1.5000    0.0000 C   0  0
   -1.2990    0.7500    0.0000 C   0  0
   -1.2990   -0.7500    0.0000 C   0  0
    0.0000   -1.5000    0.0000 C   0  0
    0.3114   -2.9665    0.0000 N   0  0
   -0.6890   -4.0818    0.0000 C   0  0
   -0.2234   -5.5086    0.0000 C   0  0
   -1.2256   -6.6258    0.0000 C   0  0
   -0.7603   -8.0518    0.0000 C   0  0
   -2.6933   -6.3162    0.0000 C   0  0
  1  2  1  0
  2  3  1  0
  2  4  1  0
  4  5  1  0
  5  6  1  0
  6  7  1  0
  7  8  2  0
  8  9  1  0
  9 10  2  0
 10  6  1  0
 10 11  1  0
 11 12  2  0
 12 13  1  0
 13 14  2  0
 13 15  1  0
 15 16  2  0
 16 17  1  0
 17 18  2  0
 18 19  1  0
 19 20  2  0
 20 21  1  0
 21 22  2  0
 22 23  1  0
 23 24  2  0
 24 19  1  0
 24 25  1  0
 25 17  1  0
 25 26  1  0
 26 27  1  0
 27 28  1  0
 28 29  1  0
 28 30  1  0
M  END
> <assay_chembl_id>
CHEMBL4191525

> <assay_description>
Antiproliferative activity against human LNCAP cells assessed as decrease in cell viability after 3 days by WST assay

> <document_journal>
Eur J Med Chem

> <molecule_chembl_id>
CHEMBL4213143

> <standard_value>
930

> <IC50_uM>
0.93

> <Activity>
Yes

> <Canonical_Smiles>
CC(C)CCn1ccnc1/C=C/C(=O)/C=C/c1nc2ccccc2n1CCC(C)C

$$$$

  SciTegic03142313312D

 30 32  0  0  0  0            999 V2000
   10.4967  -13.3055    0.0000 C   0  0
    9.4962  -12.1880    0.0000 C   0  0
    9.9630  -10.7616    0.0000 C   0  0
    8.9618   -9.6435    0.0000 C   0  0  3  0  0  0
    7.4939   -9.9518    0.0000 C   0  0
    9.4278   -8.2196    0.0000 N   0  0
   10.8528   -7.7511    0.0000 C   0  0
   10.8475   -6.2511    0.0000 C   0  0
    9.4193   -5.7926    0.0000 N   0  0
    8.5637   -7.0091    0.0000 C   0  0
    7.0629   -7.0113    0.0000 C   0  0
    6.3098   -5.7131    0.0000 C   0  0
    4.8090   -5.7153    0.0000 C   0  0
    4.0613   -7.0156    0.0000 O   0  0
    4.0559   -4.4171    0.0000 C   0  0
    2.5551   -4.4192    0.0000 C   0  0
    1.8032   -3.1233    0.0000 C   0  0
    2.4133   -1.7530    0.0000 N   0  0
    1.2990   -0.7500    0.0000 C   0  0
    1.2990    0.7500    0.0000 C   0  0
    0.0000    1.5000    0.0000 C   0  0
   -1.2990    0.7500    0.0000 C   0  0
   -1.2990   -0.7500    0.0000 C   0  0
    0.0000   -1.5000    0.0000 C   0  0
    0.3114   -2.9665    0.0000 N   0  0
   -0.6890   -4.0818    0.0000 C   0  0  3  0  0  0
   -2.1567   -3.7722    0.0000 C   0  0
   -0.2234   -5.5086    0.0000 C   0  0
   -1.2256   -6.6258    0.0000 C   0  0
   -0.7603   -8.0518    0.0000 C   0  0
  1  2  1  0
  2  3  1  0
  3  4  1  0
  4  5  1  4
  4  6  1  0
  6  7  1  0
  7  8  2  0
  8  9  1  0
  9 10  2  0
 10  6  1  0
 10 11  1  0
 11 12  2  0
 12 13  1  0
 13 14  2  0
 13 15  1  0
 15 16  2  0
 16 17  1  0
 17 18  2  0
 18 19  1  0
 19 20  2  0
 20 21  1  0
 21 22  2  0
 22 23  1  0
 23 24  2  0
 24 19  1  0
 24 25  1  0
 25 17  1  0
 25 26  1  0
 26 27  1  4
 26 28  1  0
 28 29  1  0
 29 30  1  0
M  END
> <assay_chembl_id>
CHEMBL4191525

> <assay_description>
Antiproliferative activity against human LNCAP cells assessed as decrease in cell viability after 3 days by WST assay

> <document_journal>
Eur J Med Chem

> <molecule_chembl_id>
CHEMBL4205744

> <standard_value>
370

> <IC50_uM>
0.37

> <Activity>
Yes

> <Canonical_Smiles>
CCCC(C)n1ccnc1/C=C/C(=O)/C=C/c1nc2ccccc2n1C(C)CCC

$$$$

  SciTegic03142313312D

 26 28  0  0  0  0            999 V2000
    9.4964  -12.1872    0.0000 C   0  0
    9.9630  -10.7616    0.0000 C   0  0
    8.9618   -9.6435    0.0000 C   0  0
    9.4278   -8.2196    0.0000 N   0  0
   10.8528   -7.7511    0.0000 C   0  0
   10.8475   -6.2511    0.0000 C   0  0
    9.4193   -5.7926    0.0000 N   0  0
    8.5637   -7.0091    0.0000 C   0  0
    7.0629   -7.0113    0.0000 C   0  0
    6.3098   -5.7131    0.0000 C   0  0
    4.8090   -5.7153    0.0000 C   0  0
    4.0613   -7.0156    0.0000 O   0  0
    4.0559   -4.4171    0.0000 C   0  0
    2.5551   -4.4192    0.0000 C   0  0
    1.8032   -3.1233    0.0000 C   0  0
    2.4133   -1.7530    0.0000 N   0  0
    1.2990   -0.7500    0.0000 C   0  0
    1.2990    0.7500    0.0000 C   0  0
    0.0000    1.5000    0.0000 C   0  0
   -1.2990    0.7500    0.0000 C   0  0
   -1.2990   -0.7500    0.0000 C   0  0
    0.0000   -1.5000    0.0000 C   0  0
    0.3114   -2.9665    0.0000 N   0  0
   -0.6890   -4.0818    0.0000 C   0  0
   -0.2234   -5.5086    0.0000 C   0  0
   -1.2250   -6.6252    0.0000 C   0  0
  1  2  1  0
  2  3  1  0
  3  4  1  0
  4  5  1  0
  5  6  2  0
  6  7  1  0
  7  8  2  0
  8  4  1  0
  8  9  1  0
  9 10  2  0
 10 11  1  0
 11 12  2  0
 11 13  1  0
 13 14  2  0
 14 15  1  0
 15 16  2  0
 16 17  1  0
 17 18  2  0
 18 19  1  0
 19 20  2  0
 20 21  1  0
 21 22  2  0
 22 17  1  0
 22 23  1  0
 23 15  1  0
 23 24  1  0
 24 25  1  0
 25 26  1  0
M  END
> <assay_chembl_id>
CHEMBL4191525

> <assay_description>
Antiproliferative activity against human LNCAP cells assessed as decrease in cell viability after 3 days by WST assay

> <document_journal>
Eur J Med Chem

> <molecule_chembl_id>
CHEMBL4210606

> <standard_value>
220

> <IC50_uM>
0.22

> <Activity>
Yes

> <Canonical_Smiles>
CCCn1ccnc1/C=C/C(=O)/C=C/c1nc2ccccc2n1CCC

$$$$

  SciTegic03142313312D

 28 30  0  0  0  0            999 V2000
   10.4967  -13.3055    0.0000 C   0  0
    9.4962  -12.1880    0.0000 C   0  0
    9.9630  -10.7616    0.0000 C   0  0
    8.9618   -9.6435    0.0000 C   0  0
    9.4278   -8.2196    0.0000 N   0  0
   10.8528   -7.7511    0.0000 C   0  0
   10.8475   -6.2511    0.0000 C   0  0
    9.4193   -5.7926    0.0000 N   0  0
    8.5637   -7.0091    0.0000 C   0  0
    7.0629   -7.0113    0.0000 C   0  0
    6.3098   -5.7131    0.0000 C   0  0
    4.8090   -5.7153    0.0000 C   0  0
    4.0613   -7.0156    0.0000 O   0  0
    4.0559   -4.4171    0.0000 C   0  0
    2.5551   -4.4192    0.0000 C   0  0
    1.8032   -3.1233    0.0000 C   0  0
    2.4133   -1.7530    0.0000 N   0  0
    1.2990   -0.7500    0.0000 C   0  0
    1.2990    0.7500    0.0000 C   0  0
    0.0000    1.5000    0.0000 C   0  0
   -1.2990    0.7500    0.0000 C   0  0
   -1.2990   -0.7500    0.0000 C   0  0
    0.0000   -1.5000    0.0000 C   0  0
    0.3114   -2.9665    0.0000 N   0  0
   -0.6890   -4.0818    0.0000 C   0  0
   -0.2234   -5.5086    0.0000 C   0  0
   -1.2256   -6.6258    0.0000 C   0  0
   -0.7603   -8.0518    0.0000 C   0  0
  1  2  1  0
  2  3  1  0
  3  4  1  0
  4  5  1  0
  5  6  1  0
  6  7  2  0
  7  8  1  0
  8  9  2  0
  9  5  1  0
  9 10  1  0
 10 11  2  0
 11 12  1  0
 12 13  2  0
 12 14  1  0
 14 15  2  0
 15 16  1  0
 16 17  2  0
 17 18  1  0
 18 19  2  0
 19 20  1  0
 20 21  2  0
 21 22  1  0
 22 23  2  0
 23 18  1  0
 23 24  1  0
 24 16  1  0
 24 25  1  0
 25 26  1  0
 26 27  1  0
 27 28  1  0
M  END
> <assay_chembl_id>
CHEMBL4191525

> <assay_description>
Antiproliferative activity against human LNCAP cells assessed as decrease in cell viability after 3 days by WST assay

> <document_journal>
Eur J Med Chem

> <molecule_chembl_id>
CHEMBL4209044

> <standard_value>
400

> <IC50_uM>
0.4

> <Activity>
Yes

> <Canonical_Smiles>
CCCCn1ccnc1/C=C/C(=O)/C=C/c1nc2ccccc2n1CCCC

$$$$

  SciTegic03142313312D

 26 28  0  0  0  0            999 V2000
   12.0580   -5.3652    0.0000 C   0  0
   10.8475   -6.2511    0.0000 C   0  0
   10.8528   -7.7511    0.0000 N   0  0
    9.4278   -8.2196    0.0000 C   0  0
    8.9589   -9.6425    0.0000 C   0  0
    9.9572  -10.7621    0.0000 F   0  0
    7.4903   -9.9477    0.0000 F   0  0
    8.4887  -11.0669    0.0000 F   0  0
    8.5637   -7.0091    0.0000 C   0  0
    7.0629   -7.0113    0.0000 C   0  0
    6.3098   -5.7131    0.0000 C   0  0
    4.8090   -5.7153    0.0000 C   0  0
    4.0613   -7.0156    0.0000 O   0  0
    4.0559   -4.4171    0.0000 C   0  0
    2.5551   -4.4192    0.0000 C   0  0
    1.8032   -3.1233    0.0000 C   0  0
    2.4133   -1.7530    0.0000 N   0  0
    1.2990   -0.7500    0.0000 C   0  0
    1.2990    0.7500    0.0000 C   0  0
    0.0000    1.5000    0.0000 C   0  0
   -1.2990    0.7500    0.0000 C   0  0
   -1.2990   -0.7500    0.0000 C   0  0
    0.0000   -1.5000    0.0000 C   0  0
    0.3114   -2.9665    0.0000 N   0  0
   -0.6923   -4.0811    0.0000 C   0  0
    9.4193   -5.7926    0.0000 S   0  0
  1  2  1  0
  2  3  2  0
  3  4  1  0
  4  5  1  0
  5  6  1  0
  5  7  1  0
  5  8  1  0
  4  9  2  0
  9 10  1  0
 10 11  2  0
 11 12  1  0
 12 13  2  0
 12 14  1  0
 14 15  2  0
 15 16  1  0
 16 17  2  0
 17 18  1  0
 18 19  2  0
 19 20  1  0
 20 21  2  0
 21 22  1  0
 22 23  2  0
 23 18  1  0
 23 24  1  0
 24 16  1  0
 24 25  1  0
  9 26  1  0
 26  2  1  0
M  END
> <assay_chembl_id>
CHEMBL4191525

> <assay_description>
Antiproliferative activity against human LNCAP cells assessed as decrease in cell viability after 3 days by WST assay

> <document_journal>
Eur J Med Chem

> <molecule_chembl_id>
CHEMBL4204169

> <standard_value>
340

> <IC50_uM>
0.34

> <Activity>
Yes

> <Canonical_Smiles>
Cc1nc(C(F)(F)F)c(/C=C/C(=O)/C=C/c2nc3ccccc3n2C)s1

$$$$

  SciTegic03142313312D

 27 29  0  0  0  0            999 V2000
   -0.2237   -5.5078    0.0000 C   0  0
   -0.6890   -4.0818    0.0000 C   0  0
    0.3114   -2.9665    0.0000 N   0  0
    1.8032   -3.1233    0.0000 C   0  0
    2.5551   -4.4192    0.0000 C   0  0
    4.0559   -4.4171    0.0000 C   0  0
    4.8090   -5.7153    0.0000 C   0  0
    4.0613   -7.0156    0.0000 O   0  0
    6.3098   -5.7131    0.0000 C   0  0
    7.0629   -7.0113    0.0000 C   0  0
    8.5638   -7.0091    0.0000 C   0  0
    9.4193   -5.7926    0.0000 S   0  0
   10.8475   -6.2511    0.0000 C   0  0
   12.0580   -5.3652    0.0000 C   0  0
   10.8528   -7.7511    0.0000 N   0  0
    9.4278   -8.2196    0.0000 C   0  0
    8.9589   -9.6425    0.0000 C   0  0
    9.9572  -10.7621    0.0000 F   0  0
    7.4903   -9.9477    0.0000 F   0  0
    8.4887  -11.0669    0.0000 F   0  0
    2.4133   -1.7530    0.0000 N   0  0
    1.2990   -0.7500    0.0000 C   0  0
    1.2990    0.7500    0.0000 C   0  0
    0.0000    1.5000    0.0000 C   0  0
   -1.2990    0.7500    0.0000 C   0  0
   -1.2990   -0.7500    0.0000 C   0  0
    0.0000   -1.5000    0.0000 C   0  0
  1  2  1  0
  2  3  1  0
  3  4  1  0
  4  5  1  0
  5  6  2  0
  6  7  1  0
  7  8  2  0
  7  9  1  0
  9 10  2  0
 10 11  1  0
 11 12  1  0
 12 13  1  0
 13 14  1  0
 13 15  2  0
 15 16  1  0
 16 11  2  0
 16 17  1  0
 17 18  1  0
 17 19  1  0
 17 20  1  0
  4 21  2  0
 21 22  1  0
 22 23  2  0
 23 24  1  0
 24 25  2  0
 25 26  1  0
 26 27  2  0
 27 22  1  0
 27  3  1  0
M  END
> <assay_chembl_id>
CHEMBL4191525

> <assay_description>
Antiproliferative activity against human LNCAP cells assessed as decrease in cell viability after 3 days by WST assay

> <document_journal>
Eur J Med Chem

> <molecule_chembl_id>
CHEMBL4213439

> <standard_value>
250

> <IC50_uM>
0.25

> <Activity>
Yes

> <Canonical_Smiles>
CCn1c(/C=C/C(=O)/C=C/c2sc(C)nc2C(F)(F)F)nc2ccccc21

$$$$

  SciTegic03142313312D

 28 30  0  0  0  0            999 V2000
   -1.2250   -6.6252    0.0000 C   0  0
   -0.2234   -5.5086    0.0000 C   0  0
   -0.6890   -4.0818    0.0000 C   0  0
    0.3114   -2.9665    0.0000 N   0  0
    1.8032   -3.1233    0.0000 C   0  0
    2.5551   -4.4192    0.0000 C   0  0
    4.0559   -4.4171    0.0000 C   0  0
    4.8090   -5.7153    0.0000 C   0  0
    4.0613   -7.0156    0.0000 O   0  0
    6.3098   -5.7131    0.0000 C   0  0
    7.0629   -7.0113    0.0000 C   0  0
    8.5638   -7.0091    0.0000 C   0  0
    9.4193   -5.7926    0.0000 S   0  0
   10.8475   -6.2511    0.0000 C   0  0
   12.0580   -5.3652    0.0000 C   0  0
   10.8528   -7.7511    0.0000 N   0  0
    9.4278   -8.2196    0.0000 C   0  0
    8.9589   -9.6425    0.0000 C   0  0
    9.9572  -10.7621    0.0000 F   0  0
    7.4903   -9.9477    0.0000 F   0  0
    8.4887  -11.0669    0.0000 F   0  0
    2.4133   -1.7530    0.0000 N   0  0
    1.2990   -0.7500    0.0000 C   0  0
    1.2990    0.7500    0.0000 C   0  0
    0.0000    1.5000    0.0000 C   0  0
   -1.2990    0.7500    0.0000 C   0  0
   -1.2990   -0.7500    0.0000 C   0  0
    0.0000   -1.5000    0.0000 C   0  0
  1  2  1  0
  2  3  1  0
  3  4  1  0
  4  5  1  0
  5  6  1  0
  6  7  2  0
  7  8  1  0
  8  9  2  0
  8 10  1  0
 10 11  2  0
 11 12  1  0
 12 13  1  0
 13 14  1  0
 14 15  1  0
 14 16  2  0
 16 17  1  0
 17 12  2  0
 17 18  1  0
 18 19  1  0
 18 20  1  0
 18 21  1  0
  5 22  2  0
 22 23  1  0
 23 24  2  0
 24 25  1  0
 25 26  2  0
 26 27  1  0
 27 28  2  0
 28 23  1  0
 28  4  1  0
M  END
> <assay_chembl_id>
CHEMBL4191525

> <assay_description>
Antiproliferative activity against human LNCAP cells assessed as decrease in cell viability after 3 days by WST assay

> <document_journal>
Eur J Med Chem

> <molecule_chembl_id>
CHEMBL4208508

> <standard_value>
460

> <IC50_uM>
0.46

> <Activity>
Yes

> <Canonical_Smiles>
CCCn1c(/C=C/C(=O)/C=C/c2sc(C)nc2C(F)(F)F)nc2ccccc21

$$$$

  SciTegic03142313312D

 28 30  0  0  0  0            999 V2000
   12.0580   -5.3652    0.0000 C   0  0
   10.8475   -6.2511    0.0000 C   0  0
   10.8528   -7.7511    0.0000 N   0  0
    9.4278   -8.2196    0.0000 C   0  0
    8.9589   -9.6425    0.0000 C   0  0
    9.9572  -10.7621    0.0000 F   0  0
    7.4903   -9.9477    0.0000 F   0  0
    8.4887  -11.0669    0.0000 F   0  0
    8.5637   -7.0091    0.0000 C   0  0
    7.0629   -7.0113    0.0000 C   0  0
    6.3098   -5.7131    0.0000 C   0  0
    4.8090   -5.7153    0.0000 C   0  0
    4.0613   -7.0156    0.0000 O   0  0
    4.0559   -4.4171    0.0000 C   0  0
    2.5551   -4.4192    0.0000 C   0  0
    1.8032   -3.1233    0.0000 C   0  0
    2.4133   -1.7530    0.0000 N   0  0
    1.2990   -0.7500    0.0000 C   0  0
    1.2990    0.7500    0.0000 C   0  0
    0.0000    1.5000    0.0000 C   0  0
   -1.2990    0.7500    0.0000 C   0  0
   -1.2990   -0.7500    0.0000 C   0  0
    0.0000   -1.5000    0.0000 C   0  0
    0.3114   -2.9665    0.0000 N   0  0
   -0.6890   -4.0818    0.0000 C   0  0
   -0.2237   -5.5078    0.0000 C   0  0
   -2.1567   -3.7722    0.0000 C   0  0
    9.4193   -5.7926    0.0000 S   0  0
  1  2  1  0
  2  3  2  0
  3  4  1  0
  4  5  1  0
  5  6  1  0
  5  7  1  0
  5  8  1  0
  4  9  2  0
  9 10  1  0
 10 11  2  0
 11 12  1  0
 12 13  2  0
 12 14  1  0
 14 15  2  0
 15 16  1  0
 16 17  2  0
 17 18  1  0
 18 19  2  0
 19 20  1  0
 20 21  2  0
 21 22  1  0
 22 23  2  0
 23 18  1  0
 23 24  1  0
 24 16  1  0
 24 25  1  0
 25 26  1  0
 25 27  1  0
  9 28  1  0
 28  2  1  0
M  END
> <assay_chembl_id>
CHEMBL4191525

> <assay_description>
Antiproliferative activity against human LNCAP cells assessed as decrease in cell viability after 3 days by WST assay

> <document_journal>
Eur J Med Chem

> <molecule_chembl_id>
CHEMBL4216894

> <standard_value>
300

> <IC50_uM>
0.3

> <Activity>
Yes

> <Canonical_Smiles>
Cc1nc(C(F)(F)F)c(/C=C/C(=O)/C=C/c2nc3ccccc3n2C(C)C)s1

$$$$

  SciTegic03142313312D

 24 25  0  0  0  0            999 V2000
    3.8983   -0.7459    0.0000 C   0  0
    2.6003   -1.4977    0.0000 O   0  0
    1.2990   -0.7500    0.0000 C   0  0
    1.2990    0.7500    0.0000 C   0  0
    0.0000    1.5000    0.0000 C   0  0
   -0.0031    3.0008    0.0000 C   0  0
   -1.3039    3.7494    0.0000 C   0  0
   -1.3070    5.2502    0.0000 C   0  0
   -0.0093    6.0025    0.0000 O   0  0
   -2.6078    5.9988    0.0000 C   0  0
   -2.6109    7.4996    0.0000 C   0  0
   -3.9118    8.2481    0.0000 C   0  0
   -3.9171    9.7482    0.0000 C   0  0
   -5.2187   10.4937    0.0000 C   0  0
   -6.5151    9.7392    0.0000 C   0  0
   -6.5099    8.2392    0.0000 C   0  0
   -5.2083    7.4937    0.0000 N   0  0
   -1.2990    0.7500    0.0000 C   0  0
   -1.2990   -0.7500    0.0000 C   0  0
   -2.6003   -1.4978    0.0000 O   0  0
   -3.8983   -0.7459    0.0000 C   0  0
    0.0000   -1.5000    0.0000 C   0  0
    0.0031   -3.0008    0.0000 O   0  0
    1.3032   -3.7490    0.0000 C   0  0
  1  2  1  0
  2  3  1  0
  3  4  2  0
  4  5  1  0
  5  6  1  0
  6  7  2  0
  7  8  1  0
  8  9  2  0
  8 10  1  0
 10 11  2  0
 11 12  1  0
 12 13  2  0
 13 14  1  0
 14 15  2  0
 15 16  1  0
 16 17  2  0
 17 12  1  0
  5 18  2  0
 18 19  1  0
 19 20  1  0
 20 21  1  0
 19 22  2  0
 22  3  1  0
 22 23  1  0
 23 24  1  0
M  END
> <assay_chembl_id>
CHEMBL4191525

> <assay_description>
Antiproliferative activity against human LNCAP cells assessed as decrease in cell viability after 3 days by WST assay

> <document_journal>
Eur J Med Chem

> <molecule_chembl_id>
CHEMBL4211918

> <standard_value>
400

> <IC50_uM>
0.4

> <Activity>
Yes

> <Canonical_Smiles>
COc1cc(/C=C/C(=O)/C=C/c2ccccn2)cc(OC)c1OC

$$$$

  SciTegic03142313312D

 19 20  0  0  0  0            999 V2000
    2.5981   -1.5000    0.0000 C   0  0
    1.2990   -0.7500    0.0000 C   0  0
    1.2990    0.7500    0.0000 C   0  0
    0.0000    1.5000    0.0000 C   0  0
   -1.2990    0.7500    0.0000 C   0  0
   -1.2990   -0.7500    0.0000 C   0  0
   -2.5972   -1.5031    0.0000 C   0  0
   -2.5951   -3.0039    0.0000 C   0  0
   -3.8933   -3.7570    0.0000 C   0  0
   -5.1937   -3.0093    0.0000 O   0  0
   -3.8912   -5.2578    0.0000 C   0  0
   -5.1894   -6.0109    0.0000 C   0  0
   -5.1872   -7.5117    0.0000 C   0  0
   -6.4836   -8.2663    0.0000 C   0  0
   -6.4784   -9.7663    0.0000 C   0  0
   -5.1768  -10.5118    0.0000 C   0  0
   -3.8804   -9.7573    0.0000 C   0  0
   -3.8856   -8.2573    0.0000 N   0  0
    0.0000   -1.5000    0.0000 N   0  0
  1  2  1  0
  2  3  2  0
  3  4  1  0
  4  5  2  0
  5  6  1  0
  6  7  1  0
  7  8  2  0
  8  9  1  0
  9 10  2  0
  9 11  1  0
 11 12  2  0
 12 13  1  0
 13 14  2  0
 14 15  1  0
 15 16  2  0
 16 17  1  0
 17 18  2  0
 18 13  1  0
  6 19  2  0
 19  2  1  0
M  END
> <assay_chembl_id>
CHEMBL4191525

> <assay_description>
Antiproliferative activity against human LNCAP cells assessed as decrease in cell viability after 3 days by WST assay

> <document_journal>
Eur J Med Chem

> <molecule_chembl_id>
CHEMBL4204699

> <standard_value>
300

> <IC50_uM>
0.3

> <Activity>
Yes

> <Canonical_Smiles>
Cc1cccc(/C=C/C(=O)/C=C/c2ccccn2)n1

$$$$

  SciTegic03142313312D

 22 24  0  0  0  0            999 V2000
   -0.6923   -4.0811    0.0000 C   0  0
    0.3114   -2.9665    0.0000 N   0  0
    1.8032   -3.1233    0.0000 C   0  0
    2.5551   -4.4192    0.0000 C   0  0
    4.0559   -4.4171    0.0000 C   0  0
    4.8090   -5.7153    0.0000 C   0  0
    4.0613   -7.0156    0.0000 O   0  0
    6.3098   -5.7131    0.0000 C   0  0
    7.0629   -7.0113    0.0000 C   0  0
    8.5638   -7.0091    0.0000 C   0  0
    9.3184   -8.3055    0.0000 C   0  0
   10.8184   -8.3003    0.0000 C   0  0
   11.5638   -6.9986    0.0000 C   0  0
   10.8093   -5.7022    0.0000 C   0  0
    9.3093   -5.7074    0.0000 N   0  0
    2.4133   -1.7530    0.0000 N   0  0
    1.2990   -0.7500    0.0000 C   0  0
    1.2990    0.7500    0.0000 C   0  0
    0.0000    1.5000    0.0000 C   0  0
   -1.2990    0.7500    0.0000 C   0  0
   -1.2990   -0.7500    0.0000 C   0  0
    0.0000   -1.5000    0.0000 C   0  0
  1  2  1  0
  2  3  1  0
  3  4  1  0
  4  5  2  0
  5  6  1  0
  6  7  2  0
  6  8  1  0
  8  9  2  0
  9 10  1  0
 10 11  2  0
 11 12  1  0
 12 13  2  0
 13 14  1  0
 14 15  2  0
 15 10  1  0
  3 16  2  0
 16 17  1  0
 17 18  2  0
 18 19  1  0
 19 20  2  0
 20 21  1  0
 21 22  2  0
 22 17  1  0
 22  2  1  0
M  END
> <assay_chembl_id>
CHEMBL4191525

> <assay_description>
Antiproliferative activity against human LNCAP cells assessed as decrease in cell viability after 3 days by WST assay

> <document_journal>
Eur J Med Chem

> <molecule_chembl_id>
CHEMBL4209980

> <standard_value>
180

> <IC50_uM>
0.18

> <Activity>
Yes

> <Canonical_Smiles>
Cn1c(/C=C/C(=O)/C=C/c2ccccn2)nc2ccccc21

$$$$

  SciTegic03142313312D

 23 25  0  0  0  0            999 V2000
   -0.2237   -5.5078    0.0000 C   0  0
   -0.6890   -4.0818    0.0000 C   0  0
    0.3114   -2.9665    0.0000 N   0  0
    1.8032   -3.1233    0.0000 C   0  0
    2.5551   -4.4192    0.0000 C   0  0
    4.0559   -4.4171    0.0000 C   0  0
    4.8090   -5.7153    0.0000 C   0  0
    4.0613   -7.0156    0.0000 O   0  0
    6.3098   -5.7131    0.0000 C   0  0
    7.0629   -7.0113    0.0000 C   0  0
    8.5638   -7.0091    0.0000 C   0  0
    9.3184   -8.3055    0.0000 C   0  0
   10.8184   -8.3003    0.0000 C   0  0
   11.5638   -6.9986    0.0000 C   0  0
   10.8093   -5.7022    0.0000 C   0  0
    9.3093   -5.7074    0.0000 N   0  0
    2.4133   -1.7530    0.0000 N   0  0
    1.2990   -0.7500    0.0000 C   0  0
    1.2990    0.7500    0.0000 C   0  0
    0.0000    1.5000    0.0000 C   0  0
   -1.2990    0.7500    0.0000 C   0  0
   -1.2990   -0.7500    0.0000 C   0  0
    0.0000   -1.5000    0.0000 C   0  0
  1  2  1  0
  2  3  1  0
  3  4  1  0
  4  5  1  0
  5  6  2  0
  6  7  1  0
  7  8  2  0
  7  9  1  0
  9 10  2  0
 10 11  1  0
 11 12  2  0
 12 13  1  0
 13 14  2  0
 14 15  1  0
 15 16  2  0
 16 11  1  0
  4 17  2  0
 17 18  1  0
 18 19  2  0
 19 20  1  0
 20 21  2  0
 21 22  1  0
 22 23  2  0
 23 18  1  0
 23  3  1  0
M  END
> <assay_chembl_id>
CHEMBL4191525

> <assay_description>
Antiproliferative activity against human LNCAP cells assessed as decrease in cell viability after 3 days by WST assay

> <document_journal>
Eur J Med Chem

> <molecule_chembl_id>
CHEMBL4205097

> <standard_value>
120

> <IC50_uM>
0.12

> <Activity>
Yes

> <Canonical_Smiles>
CCn1c(/C=C/C(=O)/C=C/c2ccccn2)nc2ccccc21

$$$$

  SciTegic03142313312D

 24 26  0  0  0  0            999 V2000
   -1.2250   -6.6252    0.0000 C   0  0
   -0.2234   -5.5086    0.0000 C   0  0
   -0.6890   -4.0818    0.0000 C   0  0
    0.3114   -2.9665    0.0000 N   0  0
    1.8032   -3.1233    0.0000 C   0  0
    2.5551   -4.4192    0.0000 C   0  0
    4.0559   -4.4171    0.0000 C   0  0
    4.8090   -5.7153    0.0000 C   0  0
    4.0613   -7.0156    0.0000 O   0  0
    6.3098   -5.7131    0.0000 C   0  0
    7.0629   -7.0113    0.0000 C   0  0
    8.5638   -7.0091    0.0000 C   0  0
    9.3184   -8.3055    0.0000 C   0  0
   10.8184   -8.3003    0.0000 C   0  0
   11.5638   -6.9986    0.0000 C   0  0
   10.8093   -5.7022    0.0000 C   0  0
    9.3093   -5.7074    0.0000 N   0  0
    2.4133   -1.7530    0.0000 N   0  0
    1.2990   -0.7500    0.0000 C   0  0
    1.2990    0.7500    0.0000 C   0  0
    0.0000    1.5000    0.0000 C   0  0
   -1.2990    0.7500    0.0000 C   0  0
   -1.2990   -0.7500    0.0000 C   0  0
    0.0000   -1.5000    0.0000 C   0  0
  1  2  1  0
  2  3  1  0
  3  4  1  0
  4  5  1  0
  5  6  1  0
  6  7  2  0
  7  8  1  0
  8  9  2  0
  8 10  1  0
 10 11  2  0
 11 12  1  0
 12 13  2  0
 13 14  1  0
 14 15  2  0
 15 16  1  0
 16 17  2  0
 17 12  1  0
  5 18  2  0
 18 19  1  0
 19 20  2  0
 20 21  1  0
 21 22  2  0
 22 23  1  0
 23 24  2  0
 24 19  1  0
 24  4  1  0
M  END
> <assay_chembl_id>
CHEMBL4191525

> <assay_description>
Antiproliferative activity against human LNCAP cells assessed as decrease in cell viability after 3 days by WST assay

> <document_journal>
Eur J Med Chem

> <molecule_chembl_id>
CHEMBL4204189

> <standard_value>
170

> <IC50_uM>
0.17

> <Activity>
Yes

> <Canonical_Smiles>
CCCn1c(/C=C/C(=O)/C=C/c2ccccn2)nc2ccccc21

$$$$

  SciTegic03142313312D

 24 26  0  0  0  0            999 V2000
   -0.2237   -5.5078    0.0000 C   0  0
   -0.6890   -4.0818    0.0000 C   0  0
   -2.1567   -3.7722    0.0000 C   0  0
    0.3114   -2.9665    0.0000 N   0  0
    1.8032   -3.1233    0.0000 C   0  0
    2.5551   -4.4192    0.0000 C   0  0
    4.0559   -4.4171    0.0000 C   0  0
    4.8090   -5.7153    0.0000 C   0  0
    4.0613   -7.0156    0.0000 O   0  0
    6.3098   -5.7131    0.0000 C   0  0
    7.0629   -7.0113    0.0000 C   0  0
    8.5638   -7.0091    0.0000 C   0  0
    9.3184   -8.3055    0.0000 C   0  0
   10.8184   -8.3003    0.0000 C   0  0
   11.5638   -6.9986    0.0000 C   0  0
   10.8093   -5.7022    0.0000 C   0  0
    9.3093   -5.7074    0.0000 N   0  0
    2.4133   -1.7530    0.0000 N   0  0
    1.2990   -0.7500    0.0000 C   0  0
    1.2990    0.7500    0.0000 C   0  0
    0.0000    1.5000    0.0000 C   0  0
   -1.2990    0.7500    0.0000 C   0  0
   -1.2990   -0.7500    0.0000 C   0  0
    0.0000   -1.5000    0.0000 C   0  0
  1  2  1  0
  2  3  1  0
  2  4  1  0
  4  5  1  0
  5  6  1  0
  6  7  2  0
  7  8  1  0
  8  9  2  0
  8 10  1  0
 10 11  2  0
 11 12  1  0
 12 13  2  0
 13 14  1  0
 14 15  2  0
 15 16  1  0
 16 17  2  0
 17 12  1  0
  5 18  2  0
 18 19  1  0
 19 20  2  0
 20 21  1  0
 21 22  2  0
 22 23  1  0
 23 24  2  0
 24 19  1  0
 24  4  1  0
M  END
> <assay_chembl_id>
CHEMBL4191525

> <assay_description>
Antiproliferative activity against human LNCAP cells assessed as decrease in cell viability after 3 days by WST assay

> <document_journal>
Eur J Med Chem

> <molecule_chembl_id>
CHEMBL4209057

> <standard_value>
30

> <IC50_uM>
0.03

> <Activity>
Yes

> <Canonical_Smiles>
CC(C)n1c(/C=C/C(=O)/C=C/c2ccccn2)nc2ccccc21

$$$$

  SciTegic03142313312D

 35 39  0  0  1  0            999 V2000
    5.7317   -2.7674    0.0000 C   0  0
    4.7263   -3.8805    0.0000 C   0  0
    5.1875   -5.3079    0.0000 C   0  0
    6.6542   -5.6221    0.0000 C   0  0
    4.1820   -6.4210    0.0000 C   0  0
    4.6432   -7.8483    0.0000 O   0  0
    2.7153   -6.1068    0.0000 O   0  0
    2.2540   -4.6794    0.0000 C   0  0  1  0  0  0
    0.7865   -4.3650    0.0000 C   0  0  2  0  0  0
   -0.2186   -5.4784    0.0000 C   0  0
    1.4566   -3.6227    0.0000 O   0  0
    0.3061   -2.9572    0.0000 C   0  0  2  0  0  0
   -0.6684   -2.7327    0.0000 O   0  0
    1.7979   -3.1140    0.0000 C   0  0
    2.4080   -1.7436    0.0000 C   0  0
    1.2990   -0.7500    0.0000 C   0  0  1  0  0  0
    2.6686   -0.1382    0.0000 O   0  0
    1.2990    0.7500    0.0000 C   0  0  2  0  0  0
    2.5981    1.5000    0.0000 C   0  0  1  0  0  0
    3.8971    0.7500    0.0000 O   0  0
    2.5981    3.0000    0.0000 C   0  0
    1.2990    3.7500    0.0000 C   0  0
    1.2990    5.2500    0.0000 C   0  0
    0.0000    6.0000    0.0000 C   0  0
   -1.2991    5.2500    0.0000 C   0  0
   -1.2991    3.7500    0.0000 C   0  0
   -2.5981    3.0000    0.0000 O   0  0
    0.0000    3.0000    0.0000 C   0  0  1  0  0  0
   -1.2991    2.2500    0.0000 C   0  0
    0.0000    1.5000    0.0000 C   0  0  1  0  0  0
   -1.2990    0.7500    0.0000 C   0  0
   -1.2990   -0.7500    0.0000 C   0  0
    0.0000   -1.5000    0.0000 C   0  0  2  0  0  0
   -0.8097   -2.0868    0.0000 C   0  0
    3.2595   -3.5663    0.0000 C   0  0
  1  2  1  0
  2  3  2  0
  3  4  1  0
  3  5  1  0
  5  6  2  0
  5  7  1  0
  8  7  1  1
  8  9  1  0
  9 10  1  6
  9 11  1  0
  9 12  1  0
 12 13  1  6
 12 14  1  0
 14 15  1  0
 15 16  1  0
 16 17  1  1
 18 16  1  1
 18 19  1  0
 19 20  1  6
 19 21  1  0
 21 22  2  0
 22 23  1  0
 23 24  1  0
 24 25  2  0
 25 26  1  0
 26 27  2  0
 26 28  1  0
 28 22  1  0
 28 29  1  6
 28 30  1  0
 30 18  1  0
 30 31  1  6
 31 32  1  0
 32 33  1  0
 33 12  1  0
 33 16  1  0
 33 34  1  6
  8 35  1  0
 35  2  1  0
M  END
> <assay_chembl_id>
CHEMBL4191628

> <assay_description>
Cytotoxicity against human LNCAP cells assessed as reduction in cell viability after 72 hrs by CellTiter96 AQueous one solution cell proliferation assay

> <document_journal>
J Nat Prod

> <molecule_chembl_id>
CHEMBL4216841

> <standard_value>
330

> <IC50_uM>
0.33

> <Activity>
Yes

> <Canonical_Smiles>
CC1=C(C)C(=O)O[C@@H]([C@](C)(O)[C@]2(O)CC[C@@]3(O)[C@@H]4[C@@H](O)C=C5CC=CC(=O)[C@]5(C)[C@H]4CC[C@]23C)C1

$$$$

  SciTegic03142313312D

 35 39  0  0  1  0            999 V2000
    5.7317   -2.7674    0.0000 C   0  0
    4.7263   -3.8805    0.0000 C   0  0
    5.1875   -5.3079    0.0000 C   0  0
    6.6542   -5.6221    0.0000 C   0  0
    4.1820   -6.4210    0.0000 C   0  0
    4.6432   -7.8483    0.0000 O   0  0
    2.7153   -6.1068    0.0000 O   0  0
    2.2540   -4.6794    0.0000 C   0  0  1  0  0  0
    0.7865   -4.3650    0.0000 C   0  0  2  0  0  0
   -0.2186   -5.4784    0.0000 C   0  0
    1.4566   -3.6227    0.0000 O   0  0
    0.3061   -2.9572    0.0000 C   0  0  2  0  0  0
   -0.6684   -2.7327    0.0000 O   0  0
    1.7979   -3.1140    0.0000 C   0  0
    2.4080   -1.7436    0.0000 C   0  0
    1.2990   -0.7500    0.0000 C   0  0  1  0  0  0
    2.6686   -0.1382    0.0000 O   0  0
    1.2990    0.7500    0.0000 C   0  0  2  0  0  0
    2.5981    1.5000    0.0000 C   0  0  1  0  0  0
    3.8971    0.7500    0.0000 O   0  0
    2.5981    3.0000    0.0000 C   0  0
    1.2990    3.7500    0.0000 C   0  0
    1.2990    5.2500    0.0000 C   0  0
    0.0000    6.0000    0.0000 C   0  0
   -1.2991    5.2500    0.0000 C   0  0
   -1.2991    3.7500    0.0000 C   0  0
   -2.5981    3.0000    0.0000 O   0  0
    0.0000    3.0000    0.0000 C   0  0  1  0  0  0
   -1.2991    2.2500    0.0000 C   0  0
    0.0000    1.5000    0.0000 C   0  0  1  0  0  0
   -1.2990    0.7500    0.0000 C   0  0
   -1.2990   -0.7500    0.0000 C   0  0
    0.0000   -1.5000    0.0000 C   0  0  2  0  0  0
   -0.8097   -2.0868    0.0000 C   0  0
    3.2595   -3.5663    0.0000 C   0  0
  1  2  1  0
  2  3  2  0
  3  4  1  0
  3  5  1  0
  5  6  2  0
  5  7  1  0
  8  7  1  1
  8  9  1  0
  9 10  1  6
  9 11  1  0
  9 12  1  0
 12 13  1  6
 12 14  1  0
 14 15  1  0
 15 16  1  0
 16 17  1  1
 18 16  1  1
 18 19  1  0
 19 20  1  6
 19 21  1  0
 21 22  2  0
 22 23  1  0
 23 24  2  0
 24 25  1  0
 25 26  1  0
 26 27  2  0
 26 28  1  0
 28 22  1  0
 28 29  1  6
 28 30  1  0
 30 18  1  0
 30 31  1  6
 31 32  1  0
 32 33  1  0
 33 12  1  0
 33 16  1  0
 33 34  1  6
  8 35  1  0
 35  2  1  0
M  END
> <assay_chembl_id>
CHEMBL4191628

> <assay_description>
Cytotoxicity against human LNCAP cells assessed as reduction in cell viability after 72 hrs by CellTiter96 AQueous one solution cell proliferation assay

> <document_journal>
J Nat Prod

> <molecule_chembl_id>
CHEMBL4211870

> <standard_value>
940

> <IC50_uM>
0.94

> <Activity>
Yes

> <Canonical_Smiles>
CC1=C(C)C(=O)O[C@@H]([C@](C)(O)[C@]2(O)CC[C@@]3(O)[C@@H]4[C@@H](O)C=C5C=CCC(=O)[C@]5(C)[C@H]4CC[C@]23C)C1

$$$$

  SciTegic03142313312D

 35 40  0  0  1  0            999 V2000
    2.7748    7.9473    0.0000 C   0  0
    4.0193    7.1099    0.0000 C   0  0  1  0  0  0
    3.9163    5.6134    0.0000 C   0  0
    5.1608    4.7761    0.0000 C   0  0  2  0  0  0
    5.0579    3.2788    0.0000 C   0  0  2  0  0  0
    6.3026    2.4418    0.0000 C   0  0
    3.8131    4.1158    0.0000 O   0  0
    3.7489    2.5923    0.0000 C   0  0  2  0  0  0
    2.4391    3.3233    0.0000 O   0  0
    4.9853    1.9143    0.0000 C   0  0
    4.9853    0.4786    0.0000 C   0  0
    2.4328    0.4786    0.0000 C   0  0  1  0  0  0
    2.7082   -0.9959    0.0000 O   0  0
    1.1965    0.0000    0.0000 C   0  0  2  0  0  0
    1.1965   -1.7149    0.0000 C   0  0
    0.0000   -2.4328    0.0000 C   0  0  1  0  0  0
   -1.2762   -3.1507    0.0000 O   0  0
   -1.2762   -1.7149    0.0000 C   0  0  2  0  0  0
   -2.5126   -2.4328    0.0000 C   0  0
   -3.7888   -1.7149    0.0000 C   0  0
   -3.7888    0.0000    0.0000 C   0  0
   -2.5126    0.4786    0.0000 C   0  0
   -2.5047    1.9786    0.0000 O   0  0
   -1.2762    0.0000    0.0000 C   0  0  1  0  0  0
   -1.2683    1.5000    0.0000 C   0  0
    0.0000    0.4786    0.0000 C   0  0  1  0  0  0
    0.0000    1.9143    0.0000 C   0  0
    1.1965    2.5923    0.0000 C   0  0
    2.4328    1.9143    0.0000 C   0  0  2  0  0  0
    1.1242    1.1812    0.0000 C   0  0
    6.5083    5.4351    0.0000 O   0  0
    6.6112    6.9316    0.0000 C   0  0
    7.9587    7.5907    0.0000 O   0  0
    5.3667    7.7690    0.0000 C   0  0  2  0  0  0
    5.4697    9.2655    0.0000 C   0  0
  2  1  1  6
  2  3  1  0
  4  3  1  1
  4  5  1  0
  5  6  1  6
  5  7  1  0
  5  8  1  0
  8  9  1  1
  8 10  1  0
 10 11  1  0
 11 12  1  0
 12 13  1  6
 12 14  1  0
 14 15  1  6
 16 15  1  1
 16 17  1  0
 18 17  1  1
 18 16  1  0
 18 19  1  0
 19 20  1  0
 20 21  2  0
 21 22  1  0
 22 23  2  0
 22 24  1  0
 24 18  1  0
 24 25  1  1
 24 26  1  0
 26 14  1  0
 26 27  1  1
 27 28  1  0
 28 29  1  0
 29  8  1  0
 29 12  1  0
 29 30  1  1
  4 31  1  0
 31 32  1  0
 32 33  2  0
 32 34  1  0
 34  2  1  0
 34 35  1  1
M  END
> <assay_chembl_id>
CHEMBL4191628

> <assay_description>
Cytotoxicity against human LNCAP cells assessed as reduction in cell viability after 72 hrs by CellTiter96 AQueous one solution cell proliferation assay

> <document_journal>
J Nat Prod

> <molecule_chembl_id>
CHEMBL4203685

> <standard_value>
290

> <IC50_uM>
0.29

> <Activity>
Yes

> <Canonical_Smiles>
C[C@H]1C[C@H]([C@](C)(O)[C@]2(O)CC[C@@]3(O)[C@@H]4C[C@H]5O[C@]56CC=CC(=O)[C@]6(C)[C@H]4CC[C@]23C)OC(=O)[C@@H]1C

$$$$

  SciTegic03142313312D

 36 41  0  0  1  0            999 V2000
    7.9587    7.5907    0.0000 C   0  0
    6.6112    6.9316    0.0000 C   0  0
    5.3667    7.7690    0.0000 C   0  0
    5.4697    9.2655    0.0000 C   0  0
    4.0193    7.1099    0.0000 C   0  0
    2.7748    7.9473    0.0000 O   0  0
    3.9163    5.6134    0.0000 O   0  0
    5.1608    4.7761    0.0000 C   0  0  1  0  0  0
    5.0579    3.2788    0.0000 C   0  0  2  0  0  0
    6.3026    2.4418    0.0000 C   0  0
    3.8131    4.1158    0.0000 O   0  0
    3.7489    2.5923    0.0000 C   0  0  2  0  0  0
    2.4391    3.3233    0.0000 O   0  0
    4.9853    1.9143    0.0000 C   0  0
    4.9853    0.4786    0.0000 C   0  0
    2.4328    0.4786    0.0000 C   0  0  1  0  0  0
    2.7082   -0.9959    0.0000 O   0  0
    1.1965    0.0000    0.0000 C   0  0  2  0  0  0
    1.1965   -1.7149    0.0000 C   0  0
    0.0000   -2.4328    0.0000 C   0  0  1  0  0  0
   -1.2762   -3.1507    0.0000 O   0  0
   -1.2762   -1.7149    0.0000 C   0  0  2  0  0  0
   -2.5126   -2.4328    0.0000 C   0  0  1  0  0  0
   -2.5023   -3.9328    0.0000 O   0  0
   -3.7888   -1.7149    0.0000 C   0  0
   -3.7888    0.0000    0.0000 C   0  0
   -2.5126    0.4786    0.0000 C   0  0
   -2.5047    1.9786    0.0000 O   0  0
   -1.2762    0.0000    0.0000 C   0  0  1  0  0  0
   -1.2683    1.5000    0.0000 C   0  0
    0.0000    0.4786    0.0000 C   0  0  1  0  0  0
    0.0000    1.9143    0.0000 C   0  0
    1.1965    2.5923    0.0000 C   0  0
    2.4328    1.9143    0.0000 C   0  0  2  0  0  0
    1.1242    1.1812    0.0000 C   0  0
    6.5083    5.4351    0.0000 C   0  0
  1  2  1  0
  2  3  2  0
  3  4  1  0
  3  5  1  0
  5  6  2  0
  5  7  1  0
  8  7  1  6
  8  9  1  0
  9 10  1  6
  9 11  1  0
  9 12  1  0
 12 13  1  1
 12 14  1  0
 14 15  1  0
 15 16  1  0
 16 17  1  6
 16 18  1  0
 18 19  1  6
 20 19  1  1
 20 21  1  0
 22 21  1  1
 22 20  1  0
 22 23  1  0
 23 24  1  1
 23 25  1  0
 25 26  2  0
 26 27  1  0
 27 28  2  0
 27 29  1  0
 29 22  1  0
 29 30  1  1
 29 31  1  0
 31 18  1  0
 31 32  1  1
 32 33  1  0
 33 34  1  0
 34 12  1  0
 34 16  1  0
 34 35  1  1
  8 36  1  0
 36  2  1  0
M  END
> <assay_chembl_id>
CHEMBL4191628

> <assay_description>
Cytotoxicity against human LNCAP cells assessed as reduction in cell viability after 72 hrs by CellTiter96 AQueous one solution cell proliferation assay

> <document_journal>
J Nat Prod

> <molecule_chembl_id>
CHEMBL502563

> <standard_value>
160

> <IC50_uM>
0.16

> <Activity>
Yes

> <Canonical_Smiles>
CC1=C(C)C(=O)O[C@@H]([C@](C)(O)[C@]2(O)CC[C@@]3(O)[C@@H]4C[C@H]5O[C@]56[C@@H](O)C=CC(=O)[C@]6(C)[C@H]4CC[C@]23C)C1

$$$$

  SciTegic03142313312D

 35 40  0  0  1  0            999 V2000
    7.9587    7.5907    0.0000 C   0  0
    6.6112    6.9316    0.0000 C   0  0
    5.3667    7.7690    0.0000 C   0  0
    5.4697    9.2655    0.0000 C   0  0
    4.0193    7.1099    0.0000 C   0  0
    2.7748    7.9473    0.0000 O   0  0
    3.9163    5.6134    0.0000 O   0  0
    5.1608    4.7761    0.0000 C   0  0  1  0  0  0
    5.0579    3.2788    0.0000 C   0  0  2  0  0  0
    6.3026    2.4418    0.0000 C   0  0
    3.8131    4.1158    0.0000 O   0  0
    3.7489    2.5923    0.0000 C   0  0  2  0  0  0
    2.4391    3.3233    0.0000 O   0  0
    4.9853    1.9143    0.0000 C   0  0
    4.9853    0.4786    0.0000 C   0  0
    2.4328    0.4786    0.0000 C   0  0  1  0  0  0
    2.7082   -0.9959    0.0000 O   0  0
    1.1965    0.0000    0.0000 C   0  0  2  0  0  0
    1.1965   -1.7149    0.0000 C   0  0
    0.0000   -2.4328    0.0000 C   0  0  1  0  0  0
   -1.2762   -3.1507    0.0000 O   0  0
   -1.2762   -1.7149    0.0000 C   0  0  2  0  0  0
   -2.5126   -2.4328    0.0000 C   0  0
   -3.7888   -1.7149    0.0000 C   0  0
   -3.7888    0.0000    0.0000 C   0  0
   -2.5126    0.4786    0.0000 C   0  0
   -2.5047    1.9786    0.0000 O   0  0
   -1.2762    0.0000    0.0000 C   0  0  1  0  0  0
   -1.2683    1.5000    0.0000 C   0  0
    0.0000    0.4786    0.0000 C   0  0  1  0  0  0
    0.0000    1.9143    0.0000 C   0  0
    1.1965    2.5923    0.0000 C   0  0
    2.4328    1.9143    0.0000 C   0  0  2  0  0  0
    1.1242    1.1812    0.0000 C   0  0
    6.5083    5.4351    0.0000 C   0  0
  1  2  1  0
  2  3  2  0
  3  4  1  0
  3  5  1  0
  5  6  2  0
  5  7  1  0
  8  7  1  6
  8  9  1  0
  9 10  1  6
  9 11  1  0
  9 12  1  0
 12 13  1  1
 12 14  1  0
 14 15  1  0
 15 16  1  0
 16 17  1  6
 16 18  1  0
 18 19  1  6
 20 19  1  1
 20 21  1  0
 22 21  1  1
 22 20  1  0
 22 23  1  0
 23 24  1  0
 24 25  2  0
 25 26  1  0
 26 27  2  0
 26 28  1  0
 28 22  1  0
 28 29  1  1
 28 30  1  0
 30 18  1  0
 30 31  1  1
 31 32  1  0
 32 33  1  0
 33 12  1  0
 33 16  1  0
 33 34  1  1
  8 35  1  0
 35  2  1  0
M  END
> <assay_chembl_id>
CHEMBL4191628

> <assay_description>
Cytotoxicity against human LNCAP cells assessed as reduction in cell viability after 72 hrs by CellTiter96 AQueous one solution cell proliferation assay

> <document_journal>
J Nat Prod

> <molecule_chembl_id>
CHEMBL1097107

> <standard_value>
60

> <IC50_uM>
0.06

> <Activity>
Yes

> <Canonical_Smiles>
CC1=C(C)C(=O)O[C@@H]([C@](C)(O)[C@]2(O)CC[C@@]3(O)[C@@H]4C[C@H]5O[C@]56CC=CC(=O)[C@]6(C)[C@H]4CC[C@]23C)C1

$$$$

  SciTegic03142313312D

 37 42  0  0  1  0            999 V2000
   -3.7854   -4.6998    0.0000 C   0  0
   -2.4956   -3.9342    0.0000 O   0  0
   -2.5126   -2.4328    0.0000 C   0  0  1  0  0  0
   -3.7888   -1.7149    0.0000 C   0  0
   -3.7888    0.0000    0.0000 C   0  0
   -2.5126    0.4786    0.0000 C   0  0
   -2.5047    1.9786    0.0000 O   0  0
   -1.2762    0.0000    0.0000 C   0  0  2  0  0  0
   -1.2683    1.5000    0.0000 C   0  0
    0.0000    0.4786    0.0000 C   0  0  1  0  0  0
    0.0000    1.9143    0.0000 C   0  0
    1.1965    2.5923    0.0000 C   0  0
    2.4328    1.9143    0.0000 C   0  0  2  0  0  0
    2.4522    3.4142    0.0000 C   0  0
    3.7489    2.5923    0.0000 C   0  0  2  0  0  0
    2.4391    3.3233    0.0000 O   0  0
    5.0579    3.2788    0.0000 C   0  0  1  0  0  0
    6.3663    4.0122    0.0000 C   0  0
    5.0771    4.7787    0.0000 O   0  0
    6.3481    2.5121    0.0000 C   0  0  1  0  0  0
    6.3293    1.0123    0.0000 C   0  0
    7.6189    0.2461    0.0000 C   0  0
    7.6001   -1.2538    0.0000 C   0  0
    8.9272    0.9797    0.0000 C   0  0
   10.2167    0.2135    0.0000 C   0  0
    8.9460    2.4796    0.0000 C   0  0
   10.2543    3.2133    0.0000 O   0  0
    7.6564    3.2458    0.0000 O   0  0
    4.9853    1.9143    0.0000 C   0  0
    4.9853    0.4786    0.0000 C   0  0
    2.4328    0.4786    0.0000 C   0  0  2  0  0  0
    2.7082   -0.9959    0.0000 O   0  0
    1.1965    0.0000    0.0000 C   0  0  2  0  0  0
    1.1965   -1.7149    0.0000 C   0  0
    0.0000   -2.4328    0.0000 C   0  0  1  0  0  0
   -1.2762   -3.1507    0.0000 O   0  0
   -1.2762   -1.7149    0.0000 C   0  0  2  0  0  0
  1  2  1  0
  3  2  1  1
  3  4  1  0
  4  5  2  0
  5  6  1  0
  6  7  2  0
  6  8  1  0
  8  9  1  1
  8 10  1  0
 10 11  1  1
 11 12  1  0
 12 13  1  0
 13 14  1  1
 13 15  1  0
 15 16  1  1
 15 17  1  0
 17 18  1  6
 17 19  1  0
 17 20  1  0
 20 21  1  6
 21 22  1  0
 22 23  1  0
 22 24  2  0
 24 25  1  0
 24 26  1  0
 26 27  2  0
 26 28  1  0
 28 20  1  0
 15 29  1  0
 29 30  1  0
 30 31  1  0
 31 13  1  0
 31 32  1  6
 31 33  1  0
 33 10  1  0
 33 34  1  6
 35 34  1  1
 35 36  1  0
 37 36  1  1
 37  3  1  0
 37 35  1  0
 37  8  1  0
M  END
> <assay_chembl_id>
CHEMBL4191628

> <assay_description>
Cytotoxicity against human LNCAP cells assessed as reduction in cell viability after 72 hrs by CellTiter96 AQueous one solution cell proliferation assay

> <document_journal>
J Nat Prod

> <molecule_chembl_id>
CHEMBL4203165

> <standard_value>
330

> <IC50_uM>
0.33

> <Activity>
Yes

> <Canonical_Smiles>
CO[C@H]1C=CC(=O)[C@]2(C)[C@H]3CC[C@]4(C)[C@](O)([C@@](C)(O)[C@H]5CC(C)=C(C)C(=O)O5)CC[C@@]4(O)[C@@H]3C[C@H]3O[C@]132

$$$$

  SciTegic03142313312D

 36 41  0  0  1  0            999 V2000
    7.9587    7.5907    0.0000 C   0  0
    6.6112    6.9316    0.0000 C   0  0
    5.3667    7.7690    0.0000 C   0  0
    5.4697    9.2655    0.0000 C   0  0
    4.0193    7.1099    0.0000 C   0  0
    2.7748    7.9473    0.0000 O   0  0
    3.9163    5.6134    0.0000 O   0  0
    5.1608    4.7761    0.0000 C   0  0  1  0  0  0
    5.0579    3.2788    0.0000 C   0  0  2  0  0  0
    6.3026    2.4418    0.0000 C   0  0
    3.8131    4.1158    0.0000 O   0  0
    3.7489    2.5923    0.0000 C   0  0  2  0  0  0
    2.4391    3.3233    0.0000 O   0  0
    4.9853    1.9143    0.0000 C   0  0
    4.9853    0.4786    0.0000 C   0  0
    2.4328    0.4786    0.0000 C   0  0  1  0  0  0
    2.7082   -0.9959    0.0000 O   0  0
    1.1965    0.0000    0.0000 C   0  0  2  0  0  0
    1.1965   -1.7149    0.0000 C   0  0  1  0  0  0
    2.5018   -2.4540    0.0000 O   0  0
    0.0000   -2.4328    0.0000 C   0  0  1  0  0  0
   -1.2762   -3.1507    0.0000 O   0  0
   -1.2762   -1.7149    0.0000 C   0  0  2  0  0  0
   -2.5126   -2.4328    0.0000 C   0  0
   -3.7888   -1.7149    0.0000 C   0  0
   -3.7888    0.0000    0.0000 C   0  0
   -2.5126    0.4786    0.0000 C   0  0
   -2.5047    1.9786    0.0000 O   0  0
   -1.2762    0.0000    0.0000 C   0  0  1  0  0  0
   -1.2683    1.5000    0.0000 C   0  0
    0.0000    0.4786    0.0000 C   0  0  1  0  0  0
    0.0000    1.9143    0.0000 C   0  0
    1.1965    2.5923    0.0000 C   0  0
    2.4328    1.9143    0.0000 C   0  0  2  0  0  0
    1.1242    1.1812    0.0000 C   0  0
    6.5083    5.4351    0.0000 C   0  0
  1  2  1  0
  2  3  2  0
  3  4  1  0
  3  5  1  0
  5  6  2  0
  5  7  1  0
  8  7  1  6
  8  9  1  0
  9 10  1  6
  9 11  1  0
  9 12  1  0
 12 13  1  1
 12 14  1  0
 14 15  1  0
 15 16  1  0
 16 17  1  6
 18 16  1  6
 18 19  1  0
 19 20  1  1
 19 21  1  0
 21 22  1  1
 23 22  1  1
 23 21  1  0
 23 24  1  0
 24 25  1  0
 25 26  2  0
 26 27  1  0
 27 28  2  0
 27 29  1  0
 29 23  1  0
 29 30  1  1
 29 31  1  0
 31 18  1  0
 31 32  1  1
 32 33  1  0
 33 34  1  0
 34 12  1  0
 34 16  1  0
 34 35  1  1
  8 36  1  0
 36  2  1  0
M  END
> <assay_chembl_id>
CHEMBL4191628

> <assay_description>
Cytotoxicity against human LNCAP cells assessed as reduction in cell viability after 72 hrs by CellTiter96 AQueous one solution cell proliferation assay

> <document_journal>
J Nat Prod

> <molecule_chembl_id>
CHEMBL4213383

> <standard_value>
330

> <IC50_uM>
0.33

> <Activity>
Yes

> <Canonical_Smiles>
CC1=C(C)C(=O)O[C@@H]([C@](C)(O)[C@]2(O)CC[C@@]3(O)[C@@H]4[C@@H](O)[C@H]5O[C@]56CC=CC(=O)[C@]6(C)[C@H]4CC[C@]23C)C1

$$$$

  SciTegic03142313312D

 35 39  0  0  1  0            999 V2000
    5.7317   -2.7674    0.0000 C   0  0
    4.7263   -3.8805    0.0000 C   0  0
    5.1875   -5.3079    0.0000 C   0  0
    6.6542   -5.6221    0.0000 C   0  0
    4.1820   -6.4210    0.0000 C   0  0
    4.6432   -7.8483    0.0000 O   0  0
    2.7153   -6.1068    0.0000 O   0  0
    2.2540   -4.6794    0.0000 C   0  0  1  0  0  0
    0.7865   -4.3650    0.0000 C   0  0  2  0  0  0
   -0.2186   -5.4784    0.0000 C   0  0
    1.4566   -3.6227    0.0000 O   0  0
    0.3061   -2.9572    0.0000 C   0  0  2  0  0  0
   -0.6684   -2.7327    0.0000 O   0  0
    1.7979   -3.1140    0.0000 C   0  0
    2.4080   -1.7436    0.0000 C   0  0
    1.2990   -0.7500    0.0000 C   0  0  1  0  0  0
    2.6686   -0.1382    0.0000 O   0  0
    1.2990    0.7500    0.0000 C   0  0  2  0  0  0
    2.5981    1.5000    0.0000 C   0  0
    2.5981    3.0000    0.0000 C   0  0
    1.2990    3.7500    0.0000 C   0  0
    1.2990    5.2500    0.0000 C   0  0  1  0  0  0
    2.5980    6.0000    0.0000 O   0  0
    0.0000    6.0000    0.0000 C   0  0
   -1.2991    5.2500    0.0000 C   0  0
   -1.2991    3.7500    0.0000 C   0  0
   -2.5981    3.0000    0.0000 O   0  0
    0.0000    3.0000    0.0000 C   0  0  1  0  0  0
   -1.2991    2.2500    0.0000 C   0  0
    0.0000    1.5000    0.0000 C   0  0  1  0  0  0
   -1.2990    0.7500    0.0000 C   0  0
   -1.2990   -0.7500    0.0000 C   0  0
    0.0000   -1.5000    0.0000 C   0  0  2  0  0  0
   -0.8097   -2.0868    0.0000 C   0  0
    3.2595   -3.5663    0.0000 C   0  0
  1  2  1  0
  2  3  2  0
  3  4  1  0
  3  5  1  0
  5  6  2  0
  5  7  1  0
  8  7  1  1
  8  9  1  0
  9 10  1  6
  9 11  1  0
  9 12  1  0
 12 13  1  6
 12 14  1  0
 14 15  1  0
 15 16  1  0
 16 17  1  1
 16 18  1  0
 18 19  1  1
 19 20  1  0
 20 21  2  0
 21 22  1  0
 22 23  1  6
 22 24  1  0
 24 25  2  0
 25 26  1  0
 26 27  2  0
 26 28  1  0
 28 21  1  0
 28 29  1  6
 28 30  1  0
 30 18  1  0
 30 31  1  6
 31 32  1  0
 32 33  1  0
 33 12  1  0
 33 16  1  0
 33 34  1  6
  8 35  1  0
 35  2  1  0
M  END
> <assay_chembl_id>
CHEMBL4191628

> <assay_description>
Cytotoxicity against human LNCAP cells assessed as reduction in cell viability after 72 hrs by CellTiter96 AQueous one solution cell proliferation assay

> <document_journal>
J Nat Prod

> <molecule_chembl_id>
CHEMBL4208456

> <standard_value>
110

> <IC50_uM>
0.11

> <Activity>
Yes

> <Canonical_Smiles>
CC1=C(C)C(=O)O[C@@H]([C@](C)(O)[C@]2(O)CC[C@@]3(O)[C@@H]4CC=C5[C@@H](O)C=CC(=O)[C@]5(C)[C@H]4CC[C@]23C)C1

$$$$

  SciTegic03142313312D

 35 39  0  0  1  0            999 V2000
    6.6542   -5.6221    0.0000 C   0  0
    5.1875   -5.3079    0.0000 C   0  0
    4.1820   -6.4210    0.0000 C   0  0
    4.6405   -7.8501    0.0000 C   0  0
    3.6335   -8.9617    0.0000 O   0  0
    2.7153   -6.1068    0.0000 C   0  0
    2.2540   -4.6794    0.0000 C   0  0  2  0  0  0
    0.7865   -4.3650    0.0000 C   0  0  2  0  0  0
   -0.2186   -5.4784    0.0000 C   0  0
    1.4566   -3.6227    0.0000 O   0  0
    0.3061   -2.9572    0.0000 C   0  0  2  0  0  0
   -0.6684   -2.7327    0.0000 O   0  0
    1.7979   -3.1140    0.0000 C   0  0
    2.4080   -1.7436    0.0000 C   0  0
    1.2990   -0.7500    0.0000 C   0  0  1  0  0  0
    2.6686   -0.1382    0.0000 O   0  0
    1.2990    0.7500    0.0000 C   0  0  2  0  0  0
    2.5981    1.5000    0.0000 C   0  0
    2.5981    3.0000    0.0000 C   0  0
    1.2990    3.7500    0.0000 C   0  0
    1.2990    5.2500    0.0000 C   0  0
    0.0000    6.0000    0.0000 C   0  0
   -1.2991    5.2500    0.0000 C   0  0
   -1.2991    3.7500    0.0000 C   0  0
   -2.5981    3.0000    0.0000 O   0  0
    0.0000    3.0000    0.0000 C   0  0  1  0  0  0
   -1.2991    2.2500    0.0000 C   0  0
    0.0000    1.5000    0.0000 C   0  0  1  0  0  0
   -1.2990    0.7500    0.0000 C   0  0
   -1.2990   -0.7500    0.0000 C   0  0
    0.0000   -1.5000    0.0000 C   0  0  2  0  0  0
   -0.8097   -2.0868    0.0000 C   0  0
    3.2595   -3.5663    0.0000 O   0  0
    4.7263   -3.8805    0.0000 C   0  0
    5.7317   -2.7674    0.0000 O   0  0
  1  2  1  0
  2  3  2  0
  3  4  1  0
  4  5  1  0
  3  6  1  0
  7  6  1  6
  7  8  1  0
  8  9  1  6
  8 10  1  0
  8 11  1  0
 11 12  1  6
 11 13  1  0
 13 14  1  0
 14 15  1  0
 15 16  1  1
 15 17  1  0
 17 18  1  1
 18 19  1  0
 19 20  2  0
 20 21  1  0
 21 22  1  0
 22 23  2  0
 23 24  1  0
 24 25  2  0
 24 26  1  0
 26 20  1  0
 26 27  1  6
 26 28  1  0
 28 17  1  0
 28 29  1  6
 29 30  1  0
 30 31  1  0
 31 11  1  0
 31 15  1  0
 31 32  1  6
  7 33  1  0
 33 34  1  0
 34  2  1  0
 34 35  2  0
M  END
> <assay_chembl_id>
CHEMBL4191628

> <assay_description>
Cytotoxicity against human LNCAP cells assessed as reduction in cell viability after 72 hrs by CellTiter96 AQueous one solution cell proliferation assay

> <document_journal>
J Nat Prod

> <molecule_chembl_id>
CHEMBL4218593

> <standard_value>
240

> <IC50_uM>
0.24

> <Activity>
Yes

> <Canonical_Smiles>
CC1=C(CO)C[C@H]([C@](C)(O)[C@]2(O)CC[C@@]3(O)[C@@H]4CC=C5CC=CC(=O)[C@]5(C)[C@H]4CC[C@]23C)OC1=O

$$$$

  SciTegic03142313312D

 34 38  0  0  1  0            999 V2000
    5.7317   -2.7674    0.0000 C   0  0
    4.7263   -3.8805    0.0000 C   0  0
    5.1875   -5.3079    0.0000 C   0  0
    6.6542   -5.6221    0.0000 C   0  0
    4.1820   -6.4210    0.0000 C   0  0
    4.6432   -7.8483    0.0000 O   0  0
    2.7153   -6.1068    0.0000 O   0  0
    2.2540   -4.6794    0.0000 C   0  0  1  0  0  0
    0.7865   -4.3650    0.0000 C   0  0  2  0  0  0
   -0.2186   -5.4784    0.0000 C   0  0
    1.4566   -3.6227    0.0000 O   0  0
    0.3061   -2.9572    0.0000 C   0  0  2  0  0  0
   -0.6684   -2.7327    0.0000 O   0  0
    1.7979   -3.1140    0.0000 C   0  0
    2.4080   -1.7436    0.0000 C   0  0
    1.2990   -0.7500    0.0000 C   0  0  1  0  0  0
    2.6686   -0.1382    0.0000 O   0  0
    1.2990    0.7500    0.0000 C   0  0  2  0  0  0
    2.5981    1.5000    0.0000 C   0  0
    2.5981    3.0000    0.0000 C   0  0
    1.2990    3.7500    0.0000 C   0  0
    1.2990    5.2500    0.0000 C   0  0
    0.0000    6.0000    0.0000 C   0  0
   -1.2991    5.2500    0.0000 C   0  0
   -1.2991    3.7500    0.0000 C   0  0
   -2.5981    3.0000    0.0000 O   0  0
    0.0000    3.0000    0.0000 C   0  0  1  0  0  0
   -1.2991    2.2500    0.0000 C   0  0
    0.0000    1.5000    0.0000 C   0  0  1  0  0  0
   -1.2990    0.7500    0.0000 C   0  0
   -1.2990   -0.7500    0.0000 C   0  0
    0.0000   -1.5000    0.0000 C   0  0  2  0  0  0
   -0.8097   -2.0868    0.0000 C   0  0
    3.2595   -3.5663    0.0000 C   0  0
  1  2  1  0
  2  3  2  0
  3  4  1  0
  3  5  1  0
  5  6  2  0
  5  7  1  0
  8  7  1  1
  8  9  1  0
  9 10  1  6
  9 11  1  0
  9 12  1  0
 12 13  1  6
 12 14  1  0
 14 15  1  0
 15 16  1  0
 16 17  1  1
 16 18  1  0
 18 19  1  1
 19 20  1  0
 20 21  2  0
 21 22  1  0
 22 23  1  0
 23 24  2  0
 24 25  1  0
 25 26  2  0
 25 27  1  0
 27 21  1  0
 27 28  1  6
 27 29  1  0
 29 18  1  0
 29 30  1  6
 30 31  1  0
 31 32  1  0
 32 12  1  0
 32 16  1  0
 32 33  1  6
  8 34  1  0
 34  2  1  0
M  END
> <assay_chembl_id>
CHEMBL4191628

> <assay_description>
Cytotoxicity against human LNCAP cells assessed as reduction in cell viability after 72 hrs by CellTiter96 AQueous one solution cell proliferation assay

> <document_journal>
J Nat Prod

> <molecule_chembl_id>
CHEMBL488913

> <standard_value>
130

> <IC50_uM>
0.13

> <Activity>
Yes

> <Canonical_Smiles>
CC1=C(C)C(=O)O[C@@H]([C@](C)(O)[C@]2(O)CC[C@@]3(O)[C@@H]4CC=C5CC=CC(=O)[C@]5(C)[C@H]4CC[C@]23C)C1

$$$$

  SciTegic03142313312D

 21 25  0  0  0  0            999 V2000
    2.5981   -1.5000    0.0000 Cl  0  0
    1.2990   -0.7500    0.0000 C   0  0
    1.2990    0.7500    0.0000 C   0  0
    0.0000    1.5000    0.0000 C   0  0
   -1.2990    0.7500    0.0000 C   0  0
   -1.2990   -0.7500    0.0000 C   0  0
   -2.5981   -1.5000    0.0000 C   0  0
   -2.5981   -3.0000    0.0000 C   0  0
   -1.2990   -3.7500    0.0000 C   0  0
    0.0000   -3.0000    0.0000 N   0  0
    0.0000   -1.5000    0.0000 C   0  0
   -1.6105   -5.2165    0.0000 C   0  0
   -1.0006   -6.5847    0.0000 N   0  0
   -2.1153   -7.5884    0.0000 C   0  0
   -2.1147   -9.0873    0.0000 C   0  0
   -3.4137   -9.8373    0.0000 C   0  0
   -4.7127   -9.0873    0.0000 C   0  0
   -4.7127   -7.5873    0.0000 C   0  0
   -3.4143   -6.8384    0.0000 C   0  0
   -3.1022   -5.3733    0.0000 N   0  0
   -3.7124   -4.0030    0.0000 C   0  0
  1  2  1  0
  2  3  2  0
  3  4  1  0
  4  5  2  0
  5  6  1  0
  6  7  2  0
  7  8  1  0
  8  9  2  0
  9 10  1  0
 10 11  2  0
 11  2  1  0
 11  6  1  0
  9 12  1  0
 12 13  2  0
 13 14  1  0
 14 15  2  0
 15 16  1  0
 16 17  2  0
 17 18  1  0
 18 19  2  0
 19 14  1  0
 19 20  1  0
 20 12  1  0
 20 21  1  0
 21  8  1  0
M  END
> <assay_chembl_id>
CHEMBL4193086

> <assay_description>
Cytotoxicity against human LNCAP cells assessed as reduction in cell viability after 72 hrs by MTT assay

> <document_journal>
Eur J Med Chem

> <molecule_chembl_id>
CHEMBL4204704

> <standard_value>
24000

> <IC50_uM>
24

> <Activity>
No

> <Canonical_Smiles>
Clc1cccc2cc3c(nc12)-c1nc2ccccc2n1C3

$$$$

  SciTegic03142313312D

 21 25  0  0  0  0            999 V2000
    2.5981   -1.5000    0.0000 C   0  0
    1.2990   -0.7500    0.0000 C   0  0
    1.2990    0.7500    0.0000 C   0  0
    0.0000    1.5000    0.0000 C   0  0
   -1.2990    0.7500    0.0000 C   0  0
   -1.2990   -0.7500    0.0000 C   0  0
   -2.5981   -1.5000    0.0000 C   0  0
   -2.5981   -3.0000    0.0000 C   0  0
   -1.2990   -3.7500    0.0000 C   0  0
    0.0000   -3.0000    0.0000 N   0  0
    0.0000   -1.5000    0.0000 C   0  0
   -1.6105   -5.2165    0.0000 C   0  0
   -1.0006   -6.5847    0.0000 N   0  0
   -2.1153   -7.5884    0.0000 C   0  0
   -2.1147   -9.0873    0.0000 C   0  0
   -3.4137   -9.8373    0.0000 C   0  0
   -4.7127   -9.0873    0.0000 C   0  0
   -4.7127   -7.5873    0.0000 C   0  0
   -3.4143   -6.8384    0.0000 C   0  0
   -3.1022   -5.3733    0.0000 N   0  0
   -3.7124   -4.0030    0.0000 C   0  0
  1  2  1  0
  2  3  2  0
  3  4  1  0
  4  5  2  0
  5  6  1  0
  6  7  2  0
  7  8  1  0
  8  9  2  0
  9 10  1  0
 10 11  2  0
 11  2  1  0
 11  6  1  0
  9 12  1  0
 12 13  2  0
 13 14  1  0
 14 15  2  0
 15 16  1  0
 16 17  2  0
 17 18  1  0
 18 19  2  0
 19 14  1  0
 19 20  1  0
 20 12  1  0
 20 21  1  0
 21  8  1  0
M  END
> <assay_chembl_id>
CHEMBL4193086

> <assay_description>
Cytotoxicity against human LNCAP cells assessed as reduction in cell viability after 72 hrs by MTT assay

> <document_journal>
Eur J Med Chem

> <molecule_chembl_id>
CHEMBL4212193

> <standard_value>
23800

> <IC50_uM>
23.8

> <Activity>
No

> <Canonical_Smiles>
Cc1cccc2cc3c(nc12)-c1nc2ccccc2n1C3

$$$$

  SciTegic03142313312D

 21 25  0  0  0  0            999 V2000
    2.5981   -1.5000    0.0000 C   0  0
    1.2990   -0.7500    0.0000 C   0  0
    1.2990    0.7500    0.0000 C   0  0
    0.0000    1.5000    0.0000 C   0  0
   -1.2990    0.7500    0.0000 C   0  0
   -2.5981    1.5000    0.0000 C   0  0
   -3.8971    0.7500    0.0000 C   0  0
   -3.8971   -0.7500    0.0000 C   0  0
   -2.5981   -1.5000    0.0000 N   0  0
   -1.2990   -0.7500    0.0000 C   0  0
    0.0000   -1.5000    0.0000 C   0  0
   -5.3228   -1.2136    0.0000 C   0  0
   -6.2028   -2.4258    0.0000 N   0  0
   -7.6294   -1.9623    0.0000 C   0  0
   -8.9272   -2.7123    0.0000 C   0  0
  -10.2262   -1.9623    0.0000 C   0  0
  -10.2262   -0.4623    0.0000 C   0  0
   -8.9272    0.2877    0.0000 C   0  0
   -7.6294   -0.4623    0.0000 C   0  0
   -6.2045    0.0000    0.0000 N   0  0
   -5.3229    1.2135    0.0000 C   0  0
  1  2  1  0
  2  3  2  0
  3  4  1  0
  4  5  2  0
  5  6  1  0
  6  7  2  0
  7  8  1  0
  8  9  2  0
  9 10  1  0
 10  5  1  0
 10 11  2  0
 11  2  1  0
  8 12  1  0
 12 13  2  0
 13 14  1  0
 14 15  2  0
 15 16  1  0
 16 17  2  0
 17 18  1  0
 18 19  2  0
 19 14  1  0
 19 20  1  0
 20 12  1  0
 20 21  1  0
 21  7  1  0
M  END
> <assay_chembl_id>
CHEMBL4193086

> <assay_description>
Cytotoxicity against human LNCAP cells assessed as reduction in cell viability after 72 hrs by MTT assay

> <document_journal>
Eur J Med Chem

> <molecule_chembl_id>
CHEMBL4209046

> <standard_value>
39000

> <IC50_uM>
39

> <Activity>
No

> <Canonical_Smiles>
Cc1ccc2cc3c(nc2c1)-c1nc2ccccc2n1C3

$$$$

  SciTegic03142313312D

 21 25  0  0  0  0            999 V2000
    2.5981   -1.5000    0.0000 C   0  0
    1.2990   -0.7500    0.0000 C   0  0
    1.2990    0.7500    0.0000 C   0  0
    0.0000    1.5000    0.0000 C   0  0
   -1.2990    0.7500    0.0000 C   0  0
   -2.5981    1.5000    0.0000 N   0  0
   -3.8971    0.7500    0.0000 C   0  0
   -3.8971   -0.7500    0.0000 C   0  0
   -2.5981   -1.5000    0.0000 C   0  0
   -1.2990   -0.7500    0.0000 C   0  0
    0.0000   -1.5000    0.0000 C   0  0
   -5.3228   -1.2136    0.0000 C   0  0
   -6.2045    0.0000    0.0000 N   0  0
   -5.3229    1.2135    0.0000 C   0  0
   -6.2028    2.4258    0.0000 N   0  0
   -7.6294    1.9622    0.0000 C   0  0
   -8.9272    2.7122    0.0000 C   0  0
  -10.2263    1.9622    0.0000 C   0  0
  -10.2262    0.4622    0.0000 C   0  0
   -8.9272   -0.2878    0.0000 C   0  0
   -7.6294    0.4622    0.0000 C   0  0
  1  2  1  0
  2  3  2  0
  3  4  1  0
  4  5  2  0
  5  6  1  0
  6  7  2  0
  7  8  1  0
  8  9  2  0
  9 10  1  0
 10  5  1  0
 10 11  2  0
 11  2  1  0
  8 12  1  0
 12 13  1  0
 13 14  1  0
 14  7  1  0
 14 15  2  0
 15 16  1  0
 16 17  2  0
 17 18  1  0
 18 19  2  0
 19 20  1  0
 20 21  2  0
 21 16  1  0
 21 13  1  0
M  END
> <assay_chembl_id>
CHEMBL4193086

> <assay_description>
Cytotoxicity against human LNCAP cells assessed as reduction in cell viability after 72 hrs by MTT assay

> <document_journal>
Eur J Med Chem

> <molecule_chembl_id>
CHEMBL4213969

> <standard_value>
62500

> <IC50_uM>
62.5

> <Activity>
No

> <Canonical_Smiles>
Cc1ccc2nc3c(cc2c1)Cn1c-3nc2ccccc21

$$$$

  SciTegic03142313312D

 22 26  0  0  0  0            999 V2000
    3.8983   -0.7459    0.0000 C   0  0
    2.6003   -1.4977    0.0000 O   0  0
    1.2990   -0.7500    0.0000 C   0  0
    1.2990    0.7500    0.0000 C   0  0
    0.0000    1.5000    0.0000 C   0  0
   -1.2990    0.7500    0.0000 C   0  0
   -1.2990   -0.7500    0.0000 C   0  0
   -2.5981   -1.5000    0.0000 C   0  0
   -2.5981   -3.0000    0.0000 C   0  0
   -1.2990   -3.7500    0.0000 C   0  0
    0.0000   -3.0000    0.0000 N   0  0
    0.0000   -1.5000    0.0000 C   0  0
   -1.6105   -5.2165    0.0000 C   0  0
   -1.0006   -6.5847    0.0000 N   0  0
   -2.1153   -7.5884    0.0000 C   0  0
   -2.1147   -9.0873    0.0000 C   0  0
   -3.4137   -9.8373    0.0000 C   0  0
   -4.7127   -9.0873    0.0000 C   0  0
   -4.7127   -7.5873    0.0000 C   0  0
   -3.4143   -6.8384    0.0000 C   0  0
   -3.1022   -5.3733    0.0000 N   0  0
   -3.7124   -4.0030    0.0000 C   0  0
  1  2  1  0
  2  3  1  0
  3  4  2  0
  4  5  1  0
  5  6  2  0
  6  7  1  0
  7  8  2  0
  8  9  1  0
  9 10  2  0
 10 11  1  0
 11 12  2  0
 12  3  1  0
 12  7  1  0
 10 13  1  0
 13 14  2  0
 14 15  1  0
 15 16  2  0
 16 17  1  0
 17 18  2  0
 18 19  1  0
 19 20  2  0
 20 15  1  0
 20 21  1  0
 21 13  1  0
 21 22  1  0
 22  9  1  0
M  END
> <assay_chembl_id>
CHEMBL4193086

> <assay_description>
Cytotoxicity against human LNCAP cells assessed as reduction in cell viability after 72 hrs by MTT assay

> <document_journal>
Eur J Med Chem

> <molecule_chembl_id>
CHEMBL4215395

> <standard_value>
20000

> <IC50_uM>
20

> <Activity>
No

> <Canonical_Smiles>
COc1cccc2cc3c(nc12)-c1nc2ccccc2n1C3

$$$$

  SciTegic03142313312D

 22 26  0  0  0  0            999 V2000
    2.5951   -3.0031    0.0000 C   0  0
    2.5973   -1.5031    0.0000 O   0  0
    1.2990   -0.7500    0.0000 C   0  0
    1.2990    0.7500    0.0000 C   0  0
    0.0000    1.5000    0.0000 C   0  0
   -1.2990    0.7500    0.0000 C   0  0
   -2.5981    1.5000    0.0000 C   0  0
   -3.8971    0.7500    0.0000 C   0  0
   -3.8971   -0.7500    0.0000 C   0  0
   -2.5981   -1.5000    0.0000 N   0  0
   -1.2990   -0.7500    0.0000 C   0  0
    0.0000   -1.5000    0.0000 C   0  0
   -5.3228   -1.2136    0.0000 C   0  0
   -6.2028   -2.4258    0.0000 N   0  0
   -7.6294   -1.9623    0.0000 C   0  0
   -8.9272   -2.7123    0.0000 C   0  0
  -10.2262   -1.9623    0.0000 C   0  0
  -10.2262   -0.4623    0.0000 C   0  0
   -8.9272    0.2877    0.0000 C   0  0
   -7.6294   -0.4623    0.0000 C   0  0
   -6.2045    0.0000    0.0000 N   0  0
   -5.3229    1.2135    0.0000 C   0  0
  1  2  1  0
  2  3  1  0
  3  4  2  0
  4  5  1  0
  5  6  2  0
  6  7  1  0
  7  8  2  0
  8  9  1  0
  9 10  2  0
 10 11  1  0
 11  6  1  0
 11 12  2  0
 12  3  1  0
  9 13  1  0
 13 14  2  0
 14 15  1  0
 15 16  2  0
 16 17  1  0
 17 18  2  0
 18 19  1  0
 19 20  2  0
 20 15  1  0
 20 21  1  0
 21 13  1  0
 21 22  1  0
 22  8  1  0
M  END
> <assay_chembl_id>
CHEMBL4193086

> <assay_description>
Cytotoxicity against human LNCAP cells assessed as reduction in cell viability after 72 hrs by MTT assay

> <document_journal>
Eur J Med Chem

> <molecule_chembl_id>
CHEMBL4210447

> <standard_value>
25000

> <IC50_uM>
25

> <Activity>
No

> <Canonical_Smiles>
COc1ccc2cc3c(nc2c1)-c1nc2ccccc2n1C3

$$$$

  SciTegic03142313312D

 22 26  0  0  0  0            999 V2000
    2.5951   -3.0031    0.0000 C   0  0
    2.5973   -1.5031    0.0000 O   0  0
    1.2990   -0.7500    0.0000 C   0  0
    1.2990    0.7500    0.0000 C   0  0
    0.0000    1.5000    0.0000 C   0  0
   -1.2990    0.7500    0.0000 C   0  0
   -2.5981    1.5000    0.0000 N   0  0
   -3.8971    0.7500    0.0000 C   0  0
   -3.8971   -0.7500    0.0000 C   0  0
   -2.5981   -1.5000    0.0000 C   0  0
   -1.2990   -0.7500    0.0000 C   0  0
    0.0000   -1.5000    0.0000 C   0  0
   -5.3228   -1.2136    0.0000 C   0  0
   -6.2045    0.0000    0.0000 N   0  0
   -5.3229    1.2135    0.0000 C   0  0
   -6.2028    2.4258    0.0000 N   0  0
   -7.6294    1.9622    0.0000 C   0  0
   -8.9272    2.7122    0.0000 C   0  0
  -10.2263    1.9622    0.0000 C   0  0
  -10.2262    0.4622    0.0000 C   0  0
   -8.9272   -0.2878    0.0000 C   0  0
   -7.6294    0.4622    0.0000 C   0  0
  1  2  1  0
  2  3  1  0
  3  4  2  0
  4  5  1  0
  5  6  2  0
  6  7  1  0
  7  8  2  0
  8  9  1  0
  9 10  2  0
 10 11  1  0
 11  6  1  0
 11 12  2  0
 12  3  1  0
  9 13  1  0
 13 14  1  0
 14 15  1  0
 15  8  1  0
 15 16  2  0
 16 17  1  0
 17 18  2  0
 18 19  1  0
 19 20  2  0
 20 21  1  0
 21 22  2  0
 22 17  1  0
 22 14  1  0
M  END
> <assay_chembl_id>
CHEMBL4193086

> <assay_description>
Cytotoxicity against human LNCAP cells assessed as reduction in cell viability after 72 hrs by MTT assay

> <document_journal>
Eur J Med Chem

> <molecule_chembl_id>
CHEMBL4203205

> <standard_value>
24700

> <IC50_uM>
24.7

> <Activity>
No

> <Canonical_Smiles>
COc1ccc2nc3c(cc2c1)Cn1c-3nc2ccccc21

$$$$

  SciTegic03142313312D

 33 37  0  0  0  0            999 V2000
   18.1842  -10.5070    0.0000 F   0  0
   16.8864   -9.7550    0.0000 C   0  0
   16.8887   -8.2550    0.0000 C   0  0
   15.5909   -7.5029    0.0000 C   0  0
   14.2906   -8.2508    0.0000 C   0  0
   12.9909   -7.5004    0.0000 N   0  0
   12.9909   -6.0004    0.0000 C   0  0
   11.6918   -5.2504    0.0000 C   0  0
   10.3927   -6.0004    0.0000 N   0  0
    9.0914   -5.2526    0.0000 C   0  0
    7.7928   -6.0048    0.0000 C   0  0
    6.4915   -5.2571    0.0000 C   0  0
    5.1924   -6.0070    0.0000 C   0  0
    3.8934   -5.2570    0.0000 C   0  0
    3.8933   -3.7570    0.0000 C   0  0
    2.5951   -3.0039    0.0000 C   0  0
    2.5973   -1.5031    0.0000 O   0  0
    1.2990   -0.7500    0.0000 C   0  0
    1.2990    0.7500    0.0000 C   0  0
    0.0000    1.5000    0.0000 C   0  0
   -1.2990    0.7500    0.0000 C   0  0
   -1.2990   -0.7500    0.0000 C   0  0
    0.0000   -1.5000    0.0000 C   0  0
   -2.5981   -1.5000    0.0000 C   0  0
   -3.8971   -0.7500    0.0000 C   0  0
   -3.8971    0.7500    0.0000 C   0  0
   -2.5981    1.5000    0.0000 C   0  0
    5.1925   -3.0070    0.0000 C   0  0
    6.4915   -3.7571    0.0000 C   0  0
   10.3928   -7.5004    0.0000 C   0  0
   11.6918   -8.2504    0.0000 C   0  0
   14.2883   -9.7509    0.0000 C   0  0
   15.5861  -10.5029    0.0000 C   0  0
  1  2  1  0
  2  3  2  0
  3  4  1  0
  4  5  2  0
  5  6  1  0
  6  7  1  0
  7  8  1  0
  8  9  1  0
  9 10  1  0
 10 11  1  0
 11 12  1  0
 12 13  2  0
 13 14  1  0
 14 15  2  0
 15 16  1  0
 16 17  1  0
 17 18  1  0
 18 19  2  0
 19 20  1  0
 20 21  2  0
 21 22  1  0
 22 23  2  0
 23 18  1  0
 22 24  1  0
 24 25  1  0
 25 26  1  0
 26 27  1  0
 27 21  1  0
 15 28  1  0
 28 29  2  0
 29 12  1  0
  9 30  1  0
 30 31  1  0
 31  6  1  0
  5 32  1  0
 32 33  2  0
 33  2  1  0
M  END
> <assay_chembl_id>
CHEMBL4223197

> <assay_description>
Cytotoxicity against human LNCAP cells assessed as growth inhibition after 24 hrs by CCK8 assay

> <document_journal>
Bioorg Med Chem Lett

> <molecule_chembl_id>
CHEMBL4225239

> <standard_value>
48180

> <IC50_uM>
48.18

> <Activity>
No

> <RemovedSalts>
HCl
HCl

> <Canonical_Smiles>
Cl.Cl.Fc1ccc(N2CCN(CCc3ccc(COc4ccc5c(c4)CCCC5)cc3)CC2)cc1

$$$$

  SciTegic03142313312D

 34 38  0  0  0  0            999 V2000
   18.1789  -12.0101    0.0000 C   0  0
   18.1834  -10.5101    0.0000 O   0  0
   16.8864   -9.7550    0.0000 C   0  0
   16.8887   -8.2550    0.0000 C   0  0
   15.5909   -7.5029    0.0000 C   0  0
   14.2906   -8.2508    0.0000 C   0  0
   12.9909   -7.5004    0.0000 N   0  0
   12.9909   -6.0004    0.0000 C   0  0
   11.6918   -5.2504    0.0000 C   0  0
   10.3927   -6.0004    0.0000 N   0  0
    9.0914   -5.2526    0.0000 C   0  0
    7.7928   -6.0048    0.0000 C   0  0
    6.4915   -5.2571    0.0000 C   0  0
    5.1924   -6.0070    0.0000 C   0  0
    3.8934   -5.2570    0.0000 C   0  0
    3.8933   -3.7570    0.0000 C   0  0
    2.5951   -3.0039    0.0000 C   0  0
    2.5973   -1.5031    0.0000 O   0  0
    1.2990   -0.7500    0.0000 C   0  0
    1.2990    0.7500    0.0000 C   0  0
    0.0000    1.5000    0.0000 C   0  0
   -1.2990    0.7500    0.0000 C   0  0
   -1.2990   -0.7500    0.0000 C   0  0
    0.0000   -1.5000    0.0000 C   0  0
   -2.5981   -1.5000    0.0000 C   0  0
   -3.8971   -0.7500    0.0000 C   0  0
   -3.8971    0.7500    0.0000 C   0  0
   -2.5981    1.5000    0.0000 C   0  0
    5.1925   -3.0070    0.0000 C   0  0
    6.4915   -3.7571    0.0000 C   0  0
   10.3928   -7.5004    0.0000 C   0  0
   11.6918   -8.2504    0.0000 C   0  0
   14.2883   -9.7509    0.0000 C   0  0
   15.5861  -10.5029    0.0000 C   0  0
  1  2  1  0
  2  3  1  0
  3  4  2  0
  4  5  1  0
  5  6  2  0
  6  7  1  0
  7  8  1  0
  8  9  1  0
  9 10  1  0
 10 11  1  0
 11 12  1  0
 12 13  1  0
 13 14  2  0
 14 15  1  0
 15 16  2  0
 16 17  1  0
 17 18  1  0
 18 19  1  0
 19 20  2  0
 20 21  1  0
 21 22  2  0
 22 23  1  0
 23 24  2  0
 24 19  1  0
 23 25  1  0
 25 26  1  0
 26 27  1  0
 27 28  1  0
 28 22  1  0
 16 29  1  0
 29 30  2  0
 30 13  1  0
 10 31  1  0
 31 32  1  0
 32  7  1  0
  6 33  1  0
 33 34  2  0
 34  3  1  0
M  END
> <assay_chembl_id>
CHEMBL4223197

> <assay_description>
Cytotoxicity against human LNCAP cells assessed as growth inhibition after 24 hrs by CCK8 assay

> <document_journal>
Bioorg Med Chem Lett

> <molecule_chembl_id>
CHEMBL4224794

> <standard_value>
46160

> <IC50_uM>
46.16

> <Activity>
No

> <RemovedSalts>
HCl
HCl

> <Canonical_Smiles>
COc1ccc(N2CCN(CCc3ccc(COc4ccc5c(c4)CCCC5)cc3)CC2)cc1.Cl.Cl

$$$$

  SciTegic03142313312D

 35 39  0  0  0  0            999 V2000
   16.9040   -3.7557    0.0000 C   0  0
   16.8985   -5.2556    0.0000 C   0  0
   15.5964   -6.0021    0.0000 O   0  0
   15.5909   -7.5029    0.0000 C   0  0
   16.8887   -8.2550    0.0000 C   0  0
   16.8864   -9.7550    0.0000 C   0  0
   15.5861  -10.5029    0.0000 C   0  0
   14.2883   -9.7509    0.0000 C   0  0
   14.2906   -8.2508    0.0000 C   0  0
   12.9909   -7.5004    0.0000 N   0  0
   12.9909   -6.0004    0.0000 C   0  0
   11.6918   -5.2504    0.0000 C   0  0
   10.3927   -6.0004    0.0000 N   0  0
    9.0914   -5.2526    0.0000 C   0  0
    7.7928   -6.0048    0.0000 C   0  0
    6.4915   -5.2571    0.0000 C   0  0
    5.1924   -6.0070    0.0000 C   0  0
    3.8934   -5.2570    0.0000 C   0  0
    3.8933   -3.7570    0.0000 C   0  0
    2.5951   -3.0039    0.0000 C   0  0
    2.5973   -1.5031    0.0000 O   0  0
    1.2990   -0.7500    0.0000 C   0  0
    1.2990    0.7500    0.0000 C   0  0
    0.0000    1.5000    0.0000 C   0  0
   -1.2990    0.7500    0.0000 C   0  0
   -1.2990   -0.7500    0.0000 C   0  0
    0.0000   -1.5000    0.0000 C   0  0
   -2.5981   -1.5000    0.0000 C   0  0
   -3.8971   -0.7500    0.0000 C   0  0
   -3.8971    0.7500    0.0000 C   0  0
   -2.5981    1.5000    0.0000 C   0  0
    5.1925   -3.0070    0.0000 C   0  0
    6.4915   -3.7571    0.0000 C   0  0
   10.3928   -7.5004    0.0000 C   0  0
   11.6918   -8.2504    0.0000 C   0  0
  1  2  1  0
  2  3  1  0
  3  4  1  0
  4  5  2  0
  5  6  1  0
  6  7  2  0
  7  8  1  0
  8  9  2  0
  9  4  1  0
  9 10  1  0
 10 11  1  0
 11 12  1  0
 12 13  1  0
 13 14  1  0
 14 15  1  0
 15 16  1  0
 16 17  2  0
 17 18  1  0
 18 19  2  0
 19 20  1  0
 20 21  1  0
 21 22  1  0
 22 23  2  0
 23 24  1  0
 24 25  2  0
 25 26  1  0
 26 27  2  0
 27 22  1  0
 26 28  1  0
 28 29  1  0
 29 30  1  0
 30 31  1  0
 31 25  1  0
 19 32  1  0
 32 33  2  0
 33 16  1  0
 13 34  1  0
 34 35  1  0
 35 10  1  0
M  END
> <assay_chembl_id>
CHEMBL4223197

> <assay_description>
Cytotoxicity against human LNCAP cells assessed as growth inhibition after 24 hrs by CCK8 assay

> <document_journal>
Bioorg Med Chem Lett

> <molecule_chembl_id>
CHEMBL4224922

> <standard_value>
27980

> <IC50_uM>
27.98

> <Activity>
No

> <RemovedSalts>
HCl
HCl

> <Canonical_Smiles>
CCOc1ccccc1N1CCN(CCc2ccc(COc3ccc4c(c3)CCCC4)cc2)CC1.Cl.Cl

$$$$

  SciTegic03142313312D

 33 37  0  0  0  0            999 V2000
   15.5933   -6.0029    0.0000 C   0  0
   15.5909   -7.5029    0.0000 C   0  0
   16.8887   -8.2550    0.0000 C   0  0
   16.8864   -9.7550    0.0000 C   0  0
   15.5861  -10.5029    0.0000 C   0  0
   14.2883   -9.7509    0.0000 C   0  0
   14.2906   -8.2508    0.0000 C   0  0
   12.9909   -7.5004    0.0000 N   0  0
   12.9909   -6.0004    0.0000 C   0  0
   11.6918   -5.2504    0.0000 C   0  0
   10.3927   -6.0004    0.0000 N   0  0
    9.0914   -5.2526    0.0000 C   0  0
    7.7928   -6.0048    0.0000 C   0  0
    6.4915   -5.2571    0.0000 C   0  0
    5.1924   -6.0070    0.0000 C   0  0
    3.8934   -5.2570    0.0000 C   0  0
    3.8933   -3.7570    0.0000 C   0  0
    2.5951   -3.0039    0.0000 C   0  0
    2.5973   -1.5031    0.0000 O   0  0
    1.2990   -0.7500    0.0000 C   0  0
    1.2990    0.7500    0.0000 C   0  0
    0.0000    1.5000    0.0000 C   0  0
   -1.2990    0.7500    0.0000 C   0  0
   -1.2990   -0.7500    0.0000 C   0  0
    0.0000   -1.5000    0.0000 C   0  0
   -2.5981   -1.5000    0.0000 C   0  0
   -3.8971   -0.7500    0.0000 C   0  0
   -3.8971    0.7500    0.0000 C   0  0
   -2.5981    1.5000    0.0000 C   0  0
    5.1925   -3.0070    0.0000 C   0  0
    6.4915   -3.7571    0.0000 C   0  0
   10.3928   -7.5004    0.0000 C   0  0
   11.6918   -8.2504    0.0000 C   0  0
  1  2  1  0
  2  3  2  0
  3  4  1  0
  4  5  2  0
  5  6  1  0
  6  7  2  0
  7  2  1  0
  7  8  1  0
  8  9  1  0
  9 10  1  0
 10 11  1  0
 11 12  1  0
 12 13  1  0
 13 14  1  0
 14 15  2  0
 15 16  1  0
 16 17  2  0
 17 18  1  0
 18 19  1  0
 19 20  1  0
 20 21  2  0
 21 22  1  0
 22 23  2  0
 23 24  1  0
 24 25  2  0
 25 20  1  0
 24 26  1  0
 26 27  1  0
 27 28  1  0
 28 29  1  0
 29 23  1  0
 17 30  1  0
 30 31  2  0
 31 14  1  0
 11 32  1  0
 32 33  1  0
 33  8  1  0
M  END
> <assay_chembl_id>
CHEMBL4223197

> <assay_description>
Cytotoxicity against human LNCAP cells assessed as growth inhibition after 24 hrs by CCK8 assay

> <document_journal>
Bioorg Med Chem Lett

> <molecule_chembl_id>
CHEMBL4225686

> <standard_value>
32850

> <IC50_uM>
32.85

> <Activity>
No

> <RemovedSalts>
HCl
HCl

> <Canonical_Smiles>
Cc1ccccc1N1CCN(CCc2ccc(COc3ccc4c(c3)CCCC4)cc2)CC1.Cl.Cl

$$$$

  SciTegic03142313312D

 16 17  0  0  0  0            999 V2000
    3.3874   -4.6783    0.0000 O   0  0
    1.8954   -4.8324    0.0000 C   0  0
    1.0157   -3.6164    0.0000 C   0  0
    1.6281   -2.2462    0.0000 C   0  0
    0.7500   -1.0323    0.0000 C   0  0
    1.2135    0.3943    0.0000 N   0  0
    0.0000    1.2760    0.0000 C   0  0
   -1.2135    0.3943    0.0000 C   0  0
   -0.7500   -1.0323    0.0000 N   0  0
    1.2830   -6.2026    0.0000 C   0  0
    2.1626   -7.4186    0.0000 C   0  0
    1.5502   -8.7888    0.0000 C   0  0
    2.3046  -10.0705    0.0000 N   0  0
    1.2970  -11.1818    0.0000 C   0  0
   -0.0712  -10.5669    0.0000 C   0  0
    0.0908   -9.0756    0.0000 N   0  0
  1  2  2  0
  2  3  1  0
  3  4  2  0
  4  5  1  0
  5  6  2  0
  6  7  1  0
  7  8  2  0
  8  9  1  0
  9  5  1  0
  2 10  1  0
 10 11  2  0
 11 12  1  0
 12 13  2  0
 13 14  1  0
 14 15  2  0
 15 16  1  0
 16 12  1  0
M  END
> <assay_chembl_id>
CHEMBL4236219

> <assay_description>
Antiproliferative activity against androgen-sensitive human LNCAP cells assessed as decrease in cell viability after 3 days by WST assay

> <document_journal>
Bioorg Med Chem

> <molecule_chembl_id>
CHEMBL4238964

> <standard_value>
72820

> <IC50_uM>
72.82

> <Activity>
No

> <Canonical_Smiles>
O=C(/C=C/c1ncc[nH]1)/C=C/c1ncc[nH]1

$$$$

  SciTegic03142313312D

 28 31  0  0  0  0            999 V2000
    4.8689    3.5238    0.0000 O   0  0
    5.9880    2.5249    0.0000 C   0  0
    5.6819    1.0557    0.0000 C   0  0
    4.2567    0.5852    0.0000 C   0  0
    3.9511   -0.8815    0.0000 C   0  0
    4.9531   -1.9978    0.0000 N   0  0
    4.2010   -3.2956    0.0000 C   0  0
    2.7343   -2.9815    0.0000 C   0  0
    2.5987   -1.5004    0.0000 N   0  0
    1.2990   -0.7500    0.0000 C   0  0
    1.2990    0.7500    0.0000 C   0  0
    0.0000    1.5000    0.0000 C   0  0
   -1.2990    0.7500    0.0000 C   0  0
   -1.2990   -0.7500    0.0000 C   0  0
    0.0000   -1.5000    0.0000 C   0  0
    7.4132    2.9954    0.0000 C   0  0
    7.7193    4.4647    0.0000 C   0  0
    9.1445    4.9351    0.0000 C   0  0
   10.3396    4.0498    0.0000 N   0  0
   11.5508    4.9347    0.0000 C   0  0
   11.0835    6.3601    0.0000 C   0  0
    9.5835    6.3561    0.0000 N   0  0
    8.6910    7.5626    0.0000 C   0  0
    7.1971    7.5112    0.0000 C   0  0
    6.4036    8.7841    0.0000 C   0  0
    7.1093   10.1078    0.0000 C   0  0
    8.6085   10.1585    0.0000 C   0  0
    9.4019    8.8855    0.0000 C   0  0
  1  2  2  0
  2  3  1  0
  3  4  2  0
  4  5  1  0
  5  6  2  0
  6  7  1  0
  7  8  2  0
  8  9  1  0
  9  5  1  0
  9 10  1  0
 10 11  2  0
 11 12  1  0
 12 13  2  0
 13 14  1  0
 14 15  2  0
 15 10  1  0
  2 16  1  0
 16 17  2  0
 17 18  1  0
 18 19  2  0
 19 20  1  0
 20 21  2  0
 21 22  1  0
 22 18  1  0
 22 23  1  0
 23 24  2  0
 24 25  1  0
 25 26  2  0
 26 27  1  0
 27 28  2  0
 28 23  1  0
M  END
> <assay_chembl_id>
CHEMBL4236219

> <assay_description>
Antiproliferative activity against androgen-sensitive human LNCAP cells assessed as decrease in cell viability after 3 days by WST assay

> <document_journal>
Bioorg Med Chem

> <molecule_chembl_id>
CHEMBL4239401

> <standard_value>
220

> <IC50_uM>
0.22

> <Activity>
Yes

> <Canonical_Smiles>
O=C(/C=C/c1nccn1-c1ccccc1)/C=C/c1nccn1-c1ccccc1

$$$$

  SciTegic03142313312D

 30 33  0  0  0  0            999 V2000
    4.8689    3.5238    0.0000 O   0  0
    5.9880    2.5249    0.0000 C   0  0
    5.6819    1.0557    0.0000 C   0  0
    4.2567    0.5852    0.0000 C   0  0
    3.9511   -0.8815    0.0000 C   0  0
    4.9531   -1.9978    0.0000 N   0  0
    4.2010   -3.2956    0.0000 C   0  0
    2.7343   -2.9815    0.0000 C   0  0
    2.5987   -1.5004    0.0000 N   0  0
    1.2990   -0.7500    0.0000 C   0  0
    1.2990    0.7500    0.0000 C   0  0
    0.0000    1.5000    0.0000 C   0  0
   -1.2990    0.7500    0.0000 C   0  0
   -1.2990   -0.7500    0.0000 C   0  0
   -2.5981   -1.5000    0.0000 Cl  0  0
    0.0000   -1.5000    0.0000 C   0  0
    7.4132    2.9954    0.0000 C   0  0
    7.7193    4.4647    0.0000 C   0  0
    9.1445    4.9351    0.0000 C   0  0
   10.3396    4.0498    0.0000 N   0  0
   11.5508    4.9347    0.0000 C   0  0
   11.0835    6.3601    0.0000 C   0  0
    9.5835    6.3561    0.0000 N   0  0
    8.6910    7.5626    0.0000 C   0  0
    7.1971    7.5112    0.0000 C   0  0
    6.4036    8.7841    0.0000 C   0  0
    7.1093   10.1078    0.0000 C   0  0
    8.6085   10.1585    0.0000 C   0  0
    9.3141   11.4821    0.0000 Cl  0  0
    9.4019    8.8855    0.0000 C   0  0
  1  2  2  0
  2  3  1  0
  3  4  2  0
  4  5  1  0
  5  6  2  0
  6  7  1  0
  7  8  2  0
  8  9  1  0
  9  5  1  0
  9 10  1  0
 10 11  2  0
 11 12  1  0
 12 13  2  0
 13 14  1  0
 14 15  1  0
 14 16  2  0
 16 10  1  0
  2 17  1  0
 17 18  2  0
 18 19  1  0
 19 20  2  0
 20 21  1  0
 21 22  2  0
 22 23  1  0
 23 19  1  0
 23 24  1  0
 24 25  2  0
 25 26  1  0
 26 27  2  0
 27 28  1  0
 28 29  1  0
 28 30  2  0
 30 24  1  0
M  END
> <assay_chembl_id>
CHEMBL4236219

> <assay_description>
Antiproliferative activity against androgen-sensitive human LNCAP cells assessed as decrease in cell viability after 3 days by WST assay

> <document_journal>
Bioorg Med Chem

> <molecule_chembl_id>
CHEMBL4249491

> <standard_value>
580

> <IC50_uM>
0.58

> <Activity>
Yes

> <Canonical_Smiles>
O=C(/C=C/c1nccn1-c1cccc(Cl)c1)/C=C/c1nccn1-c1cccc(Cl)c1

$$$$

  SciTegic03142313312D

 32 35  0  0  0  0            999 V2000
    2.5951   -3.0031    0.0000 C   0  0
    2.5973   -1.5031    0.0000 O   0  0
    1.2990   -0.7500    0.0000 C   0  0
    1.2990    0.7500    0.0000 C   0  0
    0.0000    1.5000    0.0000 C   0  0
   -1.2990    0.7500    0.0000 C   0  0
   -1.2990   -0.7500    0.0000 C   0  0
   -2.5987   -1.5004    0.0000 N   0  0
   -2.7343   -2.9815    0.0000 C   0  0
   -4.2010   -3.2957    0.0000 C   0  0
   -4.9530   -1.9978    0.0000 N   0  0
   -3.9511   -0.8815    0.0000 C   0  0
   -4.2568    0.5852    0.0000 C   0  0
   -5.6819    1.0556    0.0000 C   0  0
   -5.9880    2.5249    0.0000 C   0  0
   -4.8690    3.5237    0.0000 O   0  0
   -7.4132    2.9953    0.0000 C   0  0
   -7.7193    4.4646    0.0000 C   0  0
   -9.1445    4.9351    0.0000 C   0  0
  -10.3396    4.0498    0.0000 N   0  0
  -11.5508    4.9346    0.0000 C   0  0
  -11.0835    6.3600    0.0000 C   0  0
   -9.5835    6.3560    0.0000 N   0  0
   -8.6910    7.5626    0.0000 C   0  0
   -7.1972    7.5111    0.0000 C   0  0
   -6.4037    8.7841    0.0000 C   0  0
   -7.1094   10.1077    0.0000 C   0  0
   -8.6085   10.1584    0.0000 C   0  0
   -9.3173   11.4813    0.0000 O   0  0
  -10.8165   11.5299    0.0000 C   0  0
   -9.4020    8.8855    0.0000 C   0  0
    0.0000   -1.5000    0.0000 C   0  0
  1  2  1  0
  2  3  1  0
  3  4  2  0
  4  5  1  0
  5  6  2  0
  6  7  1  0
  7  8  1  0
  8  9  1  0
  9 10  2  0
 10 11  1  0
 11 12  2  0
 12  8  1  0
 12 13  1  0
 13 14  2  0
 14 15  1  0
 15 16  2  0
 15 17  1  0
 17 18  2  0
 18 19  1  0
 19 20  2  0
 20 21  1  0
 21 22  2  0
 22 23  1  0
 23 19  1  0
 23 24  1  0
 24 25  2  0
 25 26  1  0
 26 27  2  0
 27 28  1  0
 28 29  1  0
 29 30  1  0
 28 31  2  0
 31 24  1  0
  7 32  2  0
 32  3  1  0
M  END
> <assay_chembl_id>
CHEMBL4236219

> <assay_description>
Antiproliferative activity against androgen-sensitive human LNCAP cells assessed as decrease in cell viability after 3 days by WST assay

> <document_journal>
Bioorg Med Chem

> <molecule_chembl_id>
CHEMBL4249946

> <standard_value>
230

> <IC50_uM>
0.23

> <Activity>
Yes

> <Canonical_Smiles>
COc1cccc(-n2ccnc2/C=C/C(=O)/C=C/c2nccn2-c2cccc(OC)c2)c1

$$$$

  SciTegic03142313312D

 32 35  0  0  0  0            999 V2000
    3.8983   -0.7459    0.0000 C   0  0
    2.6003   -1.4977    0.0000 O   0  0
    1.2990   -0.7500    0.0000 C   0  0
    1.2990    0.7500    0.0000 C   0  0
    0.0000    1.5000    0.0000 C   0  0
   -1.2990    0.7500    0.0000 C   0  0
   -1.2990   -0.7500    0.0000 C   0  0
    0.0000   -1.5000    0.0000 C   0  0
    0.0000   -3.0008    0.0000 N   0  0
    1.2149   -3.8587    0.0000 C   0  0
    0.7536   -5.2860    0.0000 C   0  0
   -0.7464   -5.2884    0.0000 N   0  0
   -1.2122   -3.8625    0.0000 C   0  0
   -2.6351   -3.3939    0.0000 C   0  0
   -3.7552   -4.3929    0.0000 C   0  0
   -5.1806   -3.9233    0.0000 C   0  0
   -5.4861   -2.4548    0.0000 O   0  0
   -6.3007   -4.9224    0.0000 C   0  0
   -7.7261   -4.4528    0.0000 C   0  0
   -8.8462   -5.4518    0.0000 C   0  0
   -8.6770   -6.9295    0.0000 N   0  0
  -10.0489   -7.5360    0.0000 C   0  0
  -11.0497   -6.4186    0.0000 C   0  0
  -10.2963   -5.1215    0.0000 N   0  0
  -10.8949   -3.7454    0.0000 C   0  0
  -12.3960   -3.6996    0.0000 C   0  0
  -13.1017   -2.3760    0.0000 C   0  0
  -12.3082   -1.1030    0.0000 C   0  0
  -10.8091   -1.1537    0.0000 C   0  0
  -10.1034   -2.4773    0.0000 C   0  0
   -8.6034   -2.5269    0.0000 O   0  0
   -7.8101   -1.2538    0.0000 C   0  0
  1  2  1  0
  2  3  1  0
  3  4  2  0
  4  5  1  0
  5  6  2  0
  6  7  1  0
  7  8  2  0
  8  3  1  0
  8  9  1  0
  9 10  1  0
 10 11  2  0
 11 12  1  0
 12 13  2  0
 13  9  1  0
 13 14  1  0
 14 15  2  0
 15 16  1  0
 16 17  2  0
 16 18  1  0
 18 19  2  0
 19 20  1  0
 20 21  2  0
 21 22  1  0
 22 23  2  0
 23 24  1  0
 24 20  1  0
 24 25  1  0
 25 26  2  0
 26 27  1  0
 27 28  2  0
 28 29  1  0
 29 30  2  0
 30 25  1  0
 30 31  1  0
 31 32  1  0
M  END
> <assay_chembl_id>
CHEMBL4236219

> <assay_description>
Antiproliferative activity against androgen-sensitive human LNCAP cells assessed as decrease in cell viability after 3 days by WST assay

> <document_journal>
Bioorg Med Chem

> <molecule_chembl_id>
CHEMBL4245692

> <standard_value>
290

> <IC50_uM>
0.29

> <Activity>
Yes

> <Canonical_Smiles>
COc1ccccc1-n1ccnc1/C=C/C(=O)/C=C/c1nccn1-c1ccccc1OC

$$$$

  SciTegic03142313312D

 26 29  0  0  0  0            999 V2000
    3.4025   -4.6673    0.0000 O   0  0
    4.0102   -3.2959    0.0000 C   0  0
    3.1255   -2.0835    0.0000 C   0  0
    1.6332   -2.2426    0.0000 C   0  0
    0.7500   -1.0323    0.0000 C   0  0
    1.2135    0.3943    0.0000 N   0  0
    0.0000    1.2760    0.0000 C   0  0
   -1.2135    0.3943    0.0000 C   0  0
   -0.7500   -1.0323    0.0000 N   0  0
   -1.6321   -2.2464    0.0000 C   0  0
   -3.1114   -2.3441    0.0000 N   0  0
   -3.4619   -3.8026    0.0000 C   0  0
   -2.1831   -4.5866    0.0000 C   0  0
   -1.0423   -3.6127    0.0000 S   0  0
    5.5026   -3.1368    0.0000 C   0  0
    6.3873   -4.3492    0.0000 C   0  0
    7.8797   -4.1902    0.0000 C   0  0
    8.6034   -2.8909    0.0000 N   0  0
   10.0717   -3.1976    0.0000 C   0  0
   10.2337   -4.6888    0.0000 C   0  0
    8.8655   -5.3037    0.0000 N   0  0
    8.5499   -6.7709    0.0000 C   0  0
    7.2398   -7.4642    0.0000 N   0  0
    7.5156   -8.9386    0.0000 C   0  0
    9.0031   -9.1319    0.0000 C   0  0
    9.6466   -7.7770    0.0000 S   0  0
  1  2  2  0
  2  3  1  0
  3  4  2  0
  4  5  1  0
  5  6  2  0
  6  7  1  0
  7  8  2  0
  8  9  1  0
  9  5  1  0
  9 10  1  0
 10 11  2  0
 11 12  1  0
 12 13  2  0
 13 14  1  0
 14 10  1  0
  2 15  1  0
 15 16  2  0
 16 17  1  0
 17 18  2  0
 18 19  1  0
 19 20  2  0
 20 21  1  0
 21 17  1  0
 21 22  1  0
 22 23  2  0
 23 24  1  0
 24 25  2  0
 25 26  1  0
 26 22  1  0
M  END
> <assay_chembl_id>
CHEMBL4236219

> <assay_description>
Antiproliferative activity against androgen-sensitive human LNCAP cells assessed as decrease in cell viability after 3 days by WST assay

> <document_journal>
Bioorg Med Chem

> <molecule_chembl_id>
CHEMBL4246151

> <standard_value>
320

> <IC50_uM>
0.32

> <Activity>
Yes

> <Canonical_Smiles>
O=C(/C=C/c1nccn1-c1nccs1)/C=C/c1nccn1-c1nccs1

$$$$

  SciTegic03142313312D

 26 29  0  0  0  0            999 V2000
    3.4025   -4.6673    0.0000 O   0  0
    4.0102   -3.2959    0.0000 C   0  0
    3.1255   -2.0835    0.0000 C   0  0
    1.6332   -2.2426    0.0000 C   0  0
    0.7500   -1.0323    0.0000 C   0  0
    1.2135    0.3943    0.0000 N   0  0
    0.0000    1.2760    0.0000 C   0  0
   -1.2135    0.3943    0.0000 C   0  0
   -0.7500   -1.0323    0.0000 N   0  0
   -1.6321   -2.2464    0.0000 C   0  0
   -3.1114   -2.3441    0.0000 C   0  0
   -3.4619   -3.8026    0.0000 C   0  0
   -2.1831   -4.5866    0.0000 C   0  0
   -1.0423   -3.6127    0.0000 S   0  0
    5.5026   -3.1368    0.0000 C   0  0
    6.3873   -4.3492    0.0000 C   0  0
    7.8797   -4.1902    0.0000 C   0  0
    8.6034   -2.8909    0.0000 N   0  0
   10.0717   -3.1976    0.0000 C   0  0
   10.2337   -4.6888    0.0000 C   0  0
    8.8655   -5.3037    0.0000 N   0  0
    8.5499   -6.7709    0.0000 C   0  0
    7.2398   -7.4642    0.0000 C   0  0
    7.5156   -8.9386    0.0000 C   0  0
    9.0031   -9.1319    0.0000 C   0  0
    9.6466   -7.7770    0.0000 S   0  0
  1  2  2  0
  2  3  1  0
  3  4  2  0
  4  5  1  0
  5  6  2  0
  6  7  1  0
  7  8  2  0
  8  9  1  0
  9  5  1  0
  9 10  1  0
 10 11  2  0
 11 12  1  0
 12 13  2  0
 13 14  1  0
 14 10  1  0
  2 15  1  0
 15 16  2  0
 16 17  1  0
 17 18  2  0
 18 19  1  0
 19 20  2  0
 20 21  1  0
 21 17  1  0
 21 22  1  0
 22 23  2  0
 23 24  1  0
 24 25  2  0
 25 26  1  0
 26 22  1  0
M  END
> <assay_chembl_id>
CHEMBL4236219

> <assay_description>
Antiproliferative activity against androgen-sensitive human LNCAP cells assessed as decrease in cell viability after 3 days by WST assay

> <document_journal>
Bioorg Med Chem

> <molecule_chembl_id>
CHEMBL4241888

> <standard_value>
320

> <IC50_uM>
0.32

> <Activity>
Yes

> <Canonical_Smiles>
O=C(/C=C/c1nccn1-c1cccs1)/C=C/c1nccn1-c1cccs1

$$$$

  SciTegic03142313312D

 38 43  0  0  0  0            999 V2000
    4.0613   -7.0156    0.0000 O   0  0
    4.8090   -5.7153    0.0000 C   0  0
    4.0559   -4.4171    0.0000 C   0  0
    2.5551   -4.4192    0.0000 C   0  0
    1.8032   -3.1233    0.0000 C   0  0
    2.4133   -1.7530    0.0000 N   0  0
    1.2990   -0.7500    0.0000 C   0  0
    1.2990    0.7500    0.0000 C   0  0
    0.0000    1.5000    0.0000 C   0  0
   -1.2990    0.7500    0.0000 C   0  0
   -1.2990   -0.7500    0.0000 C   0  0
    0.0000   -1.5000    0.0000 C   0  0
    0.3114   -2.9665    0.0000 N   0  0
   -0.6928   -4.0817    0.0000 C   0  0
   -2.1743   -3.8808    0.0000 C   0  0
   -3.0913   -5.0679    0.0000 C   0  0
   -2.5218   -6.4556    0.0000 C   0  0
   -1.0353   -6.6562    0.0000 C   0  0
   -0.4658   -8.0439    0.0000 Cl  0  0
   -0.1183   -5.4691    0.0000 C   0  0
    6.3098   -5.7131    0.0000 C   0  0
    7.0629   -7.0113    0.0000 C   0  0
    8.5637   -7.0091    0.0000 C   0  0
    9.4193   -5.7926    0.0000 N   0  0
   10.8467   -6.2511    0.0000 C   0  0
   12.1431   -5.4966    0.0000 C   0  0
   13.4447   -6.2421    0.0000 C   0  0
   13.4500   -7.7421    0.0000 C   0  0
   12.1536   -8.4966    0.0000 C   0  0
   10.8519   -7.7511    0.0000 C   0  0
    9.4278   -8.2196    0.0000 N   0  0
    8.9607   -9.6458    0.0000 C   0  0
    7.5266  -10.0675    0.0000 C   0  0
    7.1744  -11.5256    0.0000 C   0  0
    8.2611  -12.5596    0.0000 C   0  0
    9.6999  -12.1356    0.0000 C   0  0
   10.7865  -13.1696    0.0000 Cl  0  0
   10.0521  -10.6775    0.0000 C   0  0
  1  2  2  0
  2  3  1  0
  3  4  2  0
  4  5  1  0
  5  6  2  0
  6  7  1  0
  7  8  2  0
  8  9  1  0
  9 10  2  0
 10 11  1  0
 11 12  2  0
 12  7  1  0
 12 13  1  0
 13  5  1  0
 13 14  1  0
 14 15  2  0
 15 16  1  0
 16 17  2  0
 17 18  1  0
 18 19  1  0
 18 20  2  0
 20 14  1  0
  2 21  1  0
 21 22  2  0
 22 23  1  0
 23 24  2  0
 24 25  1  0
 25 26  2  0
 26 27  1  0
 27 28  2  0
 28 29  1  0
 29 30  2  0
 30 25  1  0
 30 31  1  0
 31 23  1  0
 31 32  1  0
 32 33  2  0
 33 34  1  0
 34 35  2  0
 35 36  1  0
 36 37  1  0
 36 38  2  0
 38 32  1  0
M  END
> <assay_chembl_id>
CHEMBL4236219

> <assay_description>
Antiproliferative activity against androgen-sensitive human LNCAP cells assessed as decrease in cell viability after 3 days by WST assay

> <document_journal>
Bioorg Med Chem

> <molecule_chembl_id>
CHEMBL4250738

> <standard_value>
30470

> <IC50_uM>
30.47

> <Activity>
No

> <Canonical_Smiles>
O=C(/C=C/c1nc2ccccc2n1-c1cccc(Cl)c1)/C=C/c1nc2ccccc2n1-c1cccc(Cl)c1

$$$$

  SciTegic03142313312D

 40 45  0  0  0  0            999 V2000
   -5.0097   -2.8083    0.0000 C   0  0
   -4.6570   -4.2663    0.0000 O   0  0
   -3.2175   -4.6910    0.0000 C   0  0
   -2.8628   -6.1485    0.0000 C   0  0
   -1.4233   -6.5700    0.0000 C   0  0
   -0.3384   -5.5341    0.0000 C   0  0
   -0.6928   -4.0817    0.0000 C   0  0
    0.3114   -2.9665    0.0000 N   0  0
    1.8032   -3.1233    0.0000 C   0  0
    2.5551   -4.4192    0.0000 C   0  0
    4.0559   -4.4171    0.0000 C   0  0
    4.8090   -5.7153    0.0000 C   0  0
    4.0613   -7.0156    0.0000 O   0  0
    6.3098   -5.7131    0.0000 C   0  0
    7.0629   -7.0113    0.0000 C   0  0
    8.5638   -7.0091    0.0000 C   0  0
    9.4193   -5.7926    0.0000 N   0  0
   10.8467   -6.2511    0.0000 C   0  0
   12.1431   -5.4966    0.0000 N   0  0
   13.4448   -6.2420    0.0000 C   0  0
   13.4500   -7.7420    0.0000 C   0  0
   12.1536   -8.4965    0.0000 C   0  0
   10.8519   -7.7511    0.0000 C   0  0
    9.4278   -8.2196    0.0000 N   0  0
    8.9607   -9.6458    0.0000 C   0  0
    7.5267  -10.0675    0.0000 C   0  0
    7.1745  -11.5255    0.0000 C   0  0
    8.2611  -12.5596    0.0000 C   0  0
    9.6999  -12.1355    0.0000 C   0  0
   10.7893  -13.1679    0.0000 O   0  0
   12.2275  -12.7418    0.0000 C   0  0
   10.0521  -10.6775    0.0000 C   0  0
    2.4133   -1.7530    0.0000 N   0  0
    1.2990   -0.7500    0.0000 C   0  0
    1.2990    0.7500    0.0000 N   0  0
    0.0000    1.5000    0.0000 C   0  0
   -1.2990    0.7500    0.0000 C   0  0
   -1.2990   -0.7500    0.0000 C   0  0
    0.0000   -1.5000    0.0000 C   0  0
   -2.1327   -3.6551    0.0000 C   0  0
  1  2  1  0
  2  3  1  0
  3  4  2  0
  4  5  1  0
  5  6  2  0
  6  7  1  0
  7  8  1  0
  8  9  1  0
  9 10  1  0
 10 11  2  0
 11 12  1  0
 12 13  2  0
 12 14  1  0
 14 15  2  0
 15 16  1  0
 16 17  2  0
 17 18  1  0
 18 19  2  0
 19 20  1  0
 20 21  2  0
 21 22  1  0
 22 23  2  0
 23 18  1  0
 23 24  1  0
 24 16  1  0
 24 25  1  0
 25 26  2  0
 26 27  1  0
 27 28  2  0
 28 29  1  0
 29 30  1  0
 30 31  1  0
 29 32  2  0
 32 25  1  0
  9 33  2  0
 33 34  1  0
 34 35  2  0
 35 36  1  0
 36 37  2  0
 37 38  1  0
 38 39  2  0
 39 34  1  0
 39  8  1  0
  7 40  2  0
 40  3  1  0
M  END
> <assay_chembl_id>
CHEMBL4236219

> <assay_description>
Antiproliferative activity against androgen-sensitive human LNCAP cells assessed as decrease in cell viability after 3 days by WST assay

> <document_journal>
Bioorg Med Chem

> <molecule_chembl_id>
CHEMBL4240105

> <standard_value>
38210

> <IC50_uM>
38.21

> <Activity>
No

> <Canonical_Smiles>
COc1cccc(-n2c(/C=C/C(=O)/C=C/c3nc4ncccc4n3-c3cccc(OC)c3)nc3ncccc32)c1

$$$$

  SciTegic03142313312D

 88 89  0  0  1  0            999 V2000
   -6.2207  -38.7870    0.0000 C   0  0
   -7.1992  -38.5806    0.0000 C   0  0
   -8.2008  -39.6972    0.0000 O   0  0
   -7.6648  -37.1538    0.0000 N   0  0
   -6.6626  -36.0366    0.0000 C   0  0  1  0  0  0
   -5.1947  -36.3494    0.0000 C   0  0
   -4.7308  -37.7767    0.0000 C   0  0
   -3.2637  -38.0893    0.0000 C   0  0
   -5.4000  -38.5197    0.0000 C   0  0
   -7.1282  -34.6098    0.0000 C   0  0
   -8.1066  -34.4035    0.0000 O   0  0
   -6.1260  -33.4926    0.0000 N   0  0
   -6.5916  -32.0658    0.0000 C   0  0  1  0  0  0
   -8.0607  -31.7591    0.0000 C   0  0
   -9.0616  -32.8774    0.0000 C   0  0
  -10.5300  -32.5709    0.0000 C   0  0
   -8.7495  -33.8275    0.0000 C   0  0
   -5.5894  -30.9486    0.0000 C   0  0
   -4.6109  -31.1550    0.0000 O   0  0
   -6.0550  -29.5218    0.0000 N   0  0
   -5.0528  -28.4046    0.0000 C   0  0  1  0  0  0
   -3.5849  -28.7174    0.0000 C   0  0
   -3.1210  -30.1447    0.0000 C   0  0
   -1.6539  -30.4573    0.0000 C   0  0
   -3.7902  -30.8877    0.0000 C   0  0
   -5.5184  -26.9778    0.0000 C   0  0
   -6.4968  -26.7714    0.0000 O   0  0
   -4.5162  -25.8606    0.0000 N   0  0
   -4.9818  -24.4338    0.0000 C   0  0  1  0  0  0
   -6.4509  -24.1271    0.0000 C   0  0
   -7.4518  -25.2454    0.0000 C   0  0
   -8.9202  -24.9389    0.0000 C   0  0
   -7.1397  -26.1955    0.0000 C   0  0
   -3.9796  -23.3166    0.0000 C   0  0
   -2.5119  -23.6262    0.0000 O   0  0
   -4.4452  -21.8898    0.0000 N   0  0
   -3.4430  -20.7726    0.0000 C   0  0  1  0  0  0
   -1.9751  -21.0854    0.0000 C   0  0
   -1.5112  -22.5127    0.0000 C   0  0
   -0.0433  -22.8255    0.0000 C   0  0
    0.4207  -24.2528    0.0000 N   0  0
    1.8886  -24.5655    0.0000 C   0  0
    2.3523  -25.9921    0.0000 N   0  0
    2.8925  -23.4510    0.0000 N   0  0
   -3.9086  -19.3458    0.0000 C   0  0
   -5.3763  -19.0362    0.0000 O   0  0
   -2.9064  -18.2286    0.0000 N   0  0
   -3.3720  -16.8018    0.0000 C   0  0  2  0  0  0
   -2.3698  -15.6846    0.0000 C   0  0
   -0.9021  -15.9942    0.0000 O   0  0
   -2.8354  -14.2578    0.0000 N   0  0
   -1.8332  -13.1406    0.0000 C   0  0  1  0  0  0
   -0.3653  -13.4534    0.0000 C   0  0
    0.0986  -14.8807    0.0000 C   0  0
    1.5665  -15.1934    0.0000 C   0  0
    2.0305  -16.6208    0.0000 C   0  0
    3.4975  -16.9334    0.0000 N   0  0
   -2.2988  -11.7138    0.0000 C   0  0
   -3.7665  -11.4042    0.0000 O   0  0
   -1.2966  -10.5966    0.0000 N   0  0
   -1.7622   -9.1698    0.0000 C   0  0  1  0  0  0
   -3.2313   -8.8631    0.0000 C   0  0
   -4.2323   -9.9814    0.0000 C   0  0
   -5.7014   -9.6747    0.0000 C   0  0
   -6.7023  -10.7930    0.0000 N   0  0
   -8.1715  -10.4863    0.0000 C   0  0
   -9.1718  -11.6040    0.0000 N   0  0
   -8.6397   -9.0612    0.0000 N   0  0
   -0.7600   -8.0526    0.0000 C   0  0
    0.7077   -8.3622    0.0000 O   0  0
   -1.2256   -6.6258    0.0000 N   0  0
   -0.2234   -5.5086    0.0000 C   0  0  1  0  0  0
   -0.6890   -4.0818    0.0000 C   0  0
    0.3114   -2.9665    0.0000 C   0  0
    1.8032   -3.1233    0.0000 C   0  0
    2.4133   -1.7530    0.0000 N   0  0
    1.2990   -0.7500    0.0000 C   0  0
    1.2990    0.7500    0.0000 C   0  0
    0.0000    1.5000    0.0000 C   0  0
   -1.2990    0.7500    0.0000 C   0  0
   -1.2990   -0.7500    0.0000 C   0  0
    0.0000   -1.5000    0.0000 C   0  0
    1.2457   -5.8153    0.0000 C   0  0
    1.7140   -7.2404    0.0000 N   0  0
    2.2461   -4.6976    0.0000 O   0  0
   -4.8399  -16.4890    0.0000 C   0  0
   -5.3036  -15.0625    0.0000 C   0  0
   -5.8438  -17.6036    0.0000 C   0  0
  1  2  1  0
  2  3  2  0
  2  4  1  0
  5  4  1  6
  5  6  1  0
  6  7  1  0
  7  8  1  0
  7  9  1  0
  5 10  1  0
 10 11  2  0
 10 12  1  0
 13 12  1  1
 13 14  1  0
 14 15  1  0
 15 16  1  0
 15 17  1  0
 13 18  1  0
 18 19  2  0
 18 20  1  0
 21 20  1  6
 21 22  1  0
 22 23  1  0
 23 24  1  0
 23 25  1  0
 21 26  1  0
 26 27  2  0
 26 28  1  0
 29 28  1  1
 29 30  1  0
 30 31  1  0
 31 32  1  0
 31 33  1  0
 29 34  1  0
 34 35  2  0
 34 36  1  0
 37 36  1  6
 37 38  1  0
 38 39  1  0
 39 40  1  0
 40 41  1  0
 41 42  1  0
 42 43  2  0
 42 44  1  0
 37 45  1  0
 45 46  2  0
 45 47  1  0
 48 47  1  1
 48 49  1  0
 49 50  2  0
 49 51  1  0
 52 51  1  6
 52 53  1  0
 53 54  1  0
 54 55  1  0
 55 56  1  0
 56 57  1  0
 52 58  1  0
 58 59  2  0
 58 60  1  0
 61 60  1  1
 61 62  1  0
 62 63  1  0
 63 64  1  0
 64 65  1  0
 65 66  1  0
 66 67  2  0
 66 68  1  0
 61 69  1  0
 69 70  2  0
 69 71  1  0
 72 71  1  1
 72 73  1  0
 73 74  1  0
 74 75  2  0
 75 76  1  0
 76 77  1  0
 77 78  2  0
 78 79  1  0
 79 80  2  0
 80 81  1  0
 81 82  2  0
 82 74  1  0
 82 77  1  0
 72 83  1  0
 83 84  1  0
 83 85  2  0
 48 86  1  0
 86 87  1  0
 86 88  1  0
M  END
> <assay_chembl_id>
CHEMBL4236737

> <assay_description>
Antiproliferative activity against human LNCAP cells after 72 hrs by MTT assay

> <document_journal>
J Med Chem

> <molecule_chembl_id>
CHEMBL4241012

> <standard_value>
31000

> <IC50_uM>
31

> <Activity>
No

> <Canonical_Smiles>
CC(=O)N[C@@H](CC(C)C)C(=O)N[C@@H](CC(C)C)C(=O)N[C@@H](CC(C)C)C(=O)N[C@@H](CC(C)C)C(=O)N[C@@H](CCCNC(=N)N)C(=O)N[C@H](C(=O)N[C@@H](CCCCN)C(=O)N[C@@H](CCCNC(=N)N)C(=O)N[C@@H](Cc1c[nH]c2ccccc12)C(N)=O)C(
C)C

$$$$

  SciTegic03142313312D

 89 89  0  0  1  0            999 V2000
   18.5772  -32.8032    0.0000 C   0  0
   19.4441  -32.3047    0.0000 C   0  0
   20.7415  -33.0574    0.0000 O   0  0
   19.4462  -30.8039    0.0000 N   0  0
   18.1480  -30.0508    0.0000 C   0  0  1  0  0  0
   16.8485  -30.8016    0.0000 C   0  0
   16.8480  -32.3024    0.0000 C   0  0
   15.5492  -33.0529    0.0000 C   0  0
   17.7140  -32.8024    0.0000 C   0  0
   18.1501  -28.5500    0.0000 C   0  0
   19.0170  -28.0515    0.0000 O   0  0
   16.8519  -27.7969    0.0000 N   0  0
   16.8540  -26.2961    0.0000 C   0  0  1  0  0  0
   18.1566  -25.5506    0.0000 C   0  0
   19.4540  -26.3051    0.0000 C   0  0
   20.7559  -25.5600    0.0000 C   0  0
   19.4505  -27.3051    0.0000 C   0  0
   15.5558  -25.5430    0.0000 C   0  0
   14.6889  -26.0415    0.0000 O   0  0
   15.5580  -24.0422    0.0000 N   0  0
   14.2598  -23.2891    0.0000 C   0  0  1  0  0  0
   12.9602  -24.0399    0.0000 C   0  0
   12.9598  -25.5407    0.0000 C   0  0
   11.6610  -26.2911    0.0000 C   0  0
   13.8258  -26.0407    0.0000 C   0  0
   14.2619  -21.7882    0.0000 C   0  0
   15.1288  -21.2898    0.0000 O   0  0
   12.9637  -21.0352    0.0000 N   0  0
   12.9658  -19.5343    0.0000 C   0  0  1  0  0  0
   14.2684  -18.7889    0.0000 C   0  0
   15.5658  -19.5434    0.0000 C   0  0
   16.8677  -18.7983    0.0000 C   0  0
   15.5623  -20.5434    0.0000 C   0  0
   11.6676  -18.7813    0.0000 C   0  0
   10.3673  -19.5290    0.0000 O   0  0
   11.6698  -17.2804    0.0000 N   0  0
   10.3716  -16.5273    0.0000 C   0  0  1  0  0  0
    9.0720  -17.2782    0.0000 C   0  0
    9.0716  -18.7790    0.0000 C   0  0
    7.7720  -19.5298    0.0000 C   0  0
    7.7716  -21.0307    0.0000 N   0  0
    6.4721  -21.7815    0.0000 C   0  0
    6.4716  -23.2815    0.0000 N   0  0
    5.1730  -21.0315    0.0000 N   0  0
   10.3737  -15.0265    0.0000 C   0  0
   11.6740  -14.2788    0.0000 O   0  0
    9.0755  -14.2734    0.0000 N   0  0
    9.0776  -12.7726    0.0000 C   0  0  2  0  0  0
    7.7794  -12.0195    0.0000 C   0  0
    6.4791  -12.7673    0.0000 O   0  0
    7.7815  -10.5187    0.0000 N   0  0
    6.4833   -9.7656    0.0000 C   0  0  1  0  0  0
    5.1838  -10.5165    0.0000 C   0  0
    5.1833  -12.0173    0.0000 C   0  0
    3.8838  -12.7681    0.0000 C   0  0
    3.8834  -14.2689    0.0000 C   0  0
    2.5846  -15.0193    0.0000 N   0  0
    6.4855   -8.2648    0.0000 C   0  0
    7.7858   -7.5171    0.0000 O   0  0
    5.1873   -7.5117    0.0000 N   0  0
    5.1894   -6.0109    0.0000 C   0  0  1  0  0  0
    6.4920   -5.2654    0.0000 C   0  0
    7.7894   -6.0199    0.0000 C   0  0
    9.0920   -5.2745    0.0000 C   0  0
   10.3893   -6.0290    0.0000 N   0  0
   11.6919   -5.2835    0.0000 C   0  0
   12.9886   -6.0376    0.0000 N   0  0
   11.6972   -3.7835    0.0000 N   0  0
    3.8912   -5.2578    0.0000 C   0  0
    2.5909   -6.0056    0.0000 O   0  0
    3.8933   -3.7570    0.0000 N   0  0
    2.5951   -3.0039    0.0000 C   0  0  1  0  0  0
    2.5973   -1.5031    0.0000 C   0  0
    1.2990   -0.7500    0.0000 C   0  0
    1.2990    0.7500    0.0000 C   0  0
    0.0000    1.5000    0.0000 C   0  0
   -1.2990    0.7500    0.0000 C   0  0
   -2.6003    1.4977    0.0000 N   0  0
   -3.8990    0.7455    0.0000 C   0  0
   -5.1996    1.4928    0.0000 N   0  0
   -3.8964   -0.7545    0.0000 N   0  0
   -1.2990   -0.7500    0.0000 C   0  0
    0.0000   -1.5000    0.0000 C   0  0
    1.2925   -3.7494    0.0000 C   0  0
    1.2873   -5.2494    0.0000 N   0  0
   -0.0041   -2.9953    0.0000 O   0  0
   10.3771  -12.0218    0.0000 C   0  0
   10.3776  -10.5218    0.0000 C   0  0
   11.6762  -12.7718    0.0000 C   0  0
  1  2  1  0
  2  3  2  0
  2  4  1  0
  5  4  1  1
  5  6  1  0
  6  7  1  0
  7  8  1  0
  7  9  1  0
  5 10  1  0
 10 11  2  0
 10 12  1  0
 13 12  1  6
 13 14  1  0
 14 15  1  0
 15 16  1  0
 15 17  1  0
 13 18  1  0
 18 19  2  0
 18 20  1  0
 21 20  1  1
 21 22  1  0
 22 23  1  0
 23 24  1  0
 23 25  1  0
 21 26  1  0
 26 27  2  0
 26 28  1  0
 29 28  1  6
 29 30  1  0
 30 31  1  0
 31 32  1  0
 31 33  1  0
 29 34  1  0
 34 35  2  0
 34 36  1  0
 37 36  1  1
 37 38  1  0
 38 39  1  0
 39 40  1  0
 40 41  1  0
 41 42  1  0
 42 43  2  0
 42 44  1  0
 37 45  1  0
 45 46  2  0
 45 47  1  0
 48 47  1  6
 48 49  1  0
 49 50  2  0
 49 51  1  0
 52 51  1  1
 52 53  1  0
 53 54  1  0
 54 55  1  0
 55 56  1  0
 56 57  1  0
 52 58  1  0
 58 59  2  0
 58 60  1  0
 61 60  1  6
 61 62  1  0
 62 63  1  0
 63 64  1  0
 64 65  1  0
 65 66  1  0
 66 67  2  0
 66 68  1  0
 61 69  1  0
 69 70  2  0
 69 71  1  0
 72 71  1  6
 72 73  1  0
 73 74  1  0
 74 75  2  0
 75 76  1  0
 76 77  2  0
 77 78  1  0
 78 79  1  0
 79 80  2  0
 79 81  1  0
 77 82  1  0
 82 83  2  0
 83 74  1  0
 72 84  1  0
 84 85  1  0
 84 86  2  0
 48 87  1  0
 87 88  1  0
 87 89  1  0
M  END
> <assay_chembl_id>
CHEMBL4236737

> <assay_description>
Antiproliferative activity against human LNCAP cells after 72 hrs by MTT assay

> <document_journal>
J Med Chem

> <molecule_chembl_id>
CHEMBL4243204

> <standard_value>
92000

> <IC50_uM>
92

> <Activity>
No

> <Canonical_Smiles>
CC(=O)N[C@@H](CC(C)C)C(=O)N[C@@H](CC(C)C)C(=O)N[C@@H](CC(C)C)C(=O)N[C@@H](CC(C)C)C(=O)N[C@@H](CCCNC(=N)N)C(=O)N[C@H](C(=O)N[C@@H](CCCCN)C(=O)N[C@@H](CCCNC(=N)N)C(=O)N[C@@H](Cc1ccc(NC(=N)N)cc1)C(N)=O)C
(C)C

$$$$

  SciTegic03142313312D

 85 85  0  0  1  0            999 V2000
   18.5772  -32.8032    0.0000 C   0  0
   19.4441  -32.3047    0.0000 C   0  0
   20.7415  -33.0574    0.0000 O   0  0
   19.4462  -30.8039    0.0000 N   0  0
   18.1480  -30.0508    0.0000 C   0  0  2  0  0  0
   16.8485  -30.8016    0.0000 C   0  0
   16.8480  -32.3024    0.0000 C   0  0
   15.5492  -33.0529    0.0000 C   0  0
   17.7140  -32.8024    0.0000 C   0  0
   18.1501  -28.5500    0.0000 C   0  0
   19.0170  -28.0515    0.0000 O   0  0
   16.8519  -27.7969    0.0000 N   0  0
   16.8540  -26.2961    0.0000 C   0  0  1  0  0  0
   18.1566  -25.5506    0.0000 C   0  0
   19.4540  -26.3051    0.0000 C   0  0
   20.7559  -25.5600    0.0000 C   0  0
   19.4505  -27.3051    0.0000 C   0  0
   15.5558  -25.5430    0.0000 C   0  0
   14.6889  -26.0415    0.0000 O   0  0
   15.5580  -24.0422    0.0000 N   0  0
   14.2598  -23.2891    0.0000 C   0  0  1  0  0  0
   12.9602  -24.0399    0.0000 C   0  0
   12.9598  -25.5407    0.0000 C   0  0
   11.6610  -26.2911    0.0000 C   0  0
   13.8258  -26.0407    0.0000 C   0  0
   14.2619  -21.7882    0.0000 C   0  0
   15.1288  -21.2898    0.0000 O   0  0
   12.9637  -21.0352    0.0000 N   0  0
   12.9658  -19.5343    0.0000 C   0  0  1  0  0  0
   14.2684  -18.7889    0.0000 C   0  0
   15.5658  -19.5434    0.0000 C   0  0
   16.8677  -18.7983    0.0000 C   0  0
   15.5623  -20.5434    0.0000 C   0  0
   11.6676  -18.7813    0.0000 C   0  0
   10.3673  -19.5290    0.0000 O   0  0
   11.6698  -17.2804    0.0000 N   0  0
   10.3716  -16.5273    0.0000 C   0  0  1  0  0  0
    9.0720  -17.2782    0.0000 C   0  0
    9.0716  -18.7790    0.0000 C   0  0
    7.7720  -19.5298    0.0000 C   0  0
    7.7716  -21.0307    0.0000 N   0  0
    6.4721  -21.7815    0.0000 C   0  0
    6.4716  -23.2815    0.0000 N   0  0
    5.1730  -21.0315    0.0000 N   0  0
   10.3737  -15.0265    0.0000 C   0  0
   11.6740  -14.2788    0.0000 O   0  0
    9.0755  -14.2734    0.0000 N   0  0
    9.0776  -12.7726    0.0000 C   0  0  2  0  0  0
    7.7794  -12.0195    0.0000 C   0  0
    6.4791  -12.7673    0.0000 O   0  0
    7.7815  -10.5187    0.0000 N   0  0
    6.4833   -9.7656    0.0000 C   0  0  1  0  0  0
    5.1838  -10.5165    0.0000 C   0  0
    5.1833  -12.0173    0.0000 C   0  0
    3.8838  -12.7681    0.0000 C   0  0
    3.8834  -14.2689    0.0000 C   0  0
    2.5846  -15.0193    0.0000 N   0  0
    6.4855   -8.2648    0.0000 C   0  0
    7.7858   -7.5171    0.0000 O   0  0
    5.1873   -7.5117    0.0000 N   0  0
    5.1894   -6.0109    0.0000 C   0  0  1  0  0  0
    6.4920   -5.2654    0.0000 C   0  0
    7.7894   -6.0199    0.0000 C   0  0
    9.0920   -5.2745    0.0000 C   0  0
   10.3893   -6.0290    0.0000 N   0  0
   11.6919   -5.2835    0.0000 C   0  0
   12.9886   -6.0376    0.0000 N   0  0
   11.6972   -3.7835    0.0000 N   0  0
    3.8912   -5.2578    0.0000 C   0  0
    2.5909   -6.0056    0.0000 O   0  0
    3.8933   -3.7570    0.0000 N   0  0
    2.5951   -3.0039    0.0000 C   0  0
    2.5973   -1.5031    0.0000 C   0  0
    1.2990   -0.7500    0.0000 C   0  0
    1.2990    0.7500    0.0000 C   0  0
    0.0000    1.5000    0.0000 C   0  0
   -1.2990    0.7500    0.0000 C   0  0
   -2.6003    1.4977    0.0000 C   0  0
   -3.8983    0.7459    0.0000 N   0  0
   -2.6030    2.9977    0.0000 N   0  0
   -1.2990   -0.7500    0.0000 C   0  0
    0.0000   -1.5000    0.0000 C   0  0
   10.3771  -12.0218    0.0000 C   0  0
   10.3776  -10.5218    0.0000 C   0  0
   11.6762  -12.7718    0.0000 C   0  0
  1  2  1  0
  2  3  2  0
  2  4  1  0
  5  4  1  6
  5  6  1  0
  6  7  1  0
  7  8  1  0
  7  9  1  0
  5 10  1  0
 10 11  2  0
 10 12  1  0
 13 12  1  6
 13 14  1  0
 14 15  1  0
 15 16  1  0
 15 17  1  0
 13 18  1  0
 18 19  2  0
 18 20  1  0
 21 20  1  1
 21 22  1  0
 22 23  1  0
 23 24  1  0
 23 25  1  0
 21 26  1  0
 26 27  2  0
 26 28  1  0
 29 28  1  6
 29 30  1  0
 30 31  1  0
 31 32  1  0
 31 33  1  0
 29 34  1  0
 34 35  2  0
 34 36  1  0
 37 36  1  1
 37 38  1  0
 38 39  1  0
 39 40  1  0
 40 41  1  0
 41 42  1  0
 42 43  2  0
 42 44  1  0
 37 45  1  0
 45 46  2  0
 45 47  1  0
 48 47  1  6
 48 49  1  0
 49 50  2  0
 49 51  1  0
 52 51  1  1
 52 53  1  0
 53 54  1  0
 54 55  1  0
 55 56  1  0
 56 57  1  0
 52 58  1  0
 58 59  2  0
 58 60  1  0
 61 60  1  6
 61 62  1  0
 62 63  1  0
 63 64  1  0
 64 65  1  0
 65 66  1  0
 66 67  2  0
 66 68  1  0
 61 69  1  0
 69 70  2  0
 69 71  1  0
 71 72  1  0
 72 73  1  0
 73 74  1  0
 74 75  2  0
 75 76  1  0
 76 77  2  0
 77 78  1  0
 78 79  2  0
 78 80  1  0
 77 81  1  0
 81 82  2  0
 82 74  1  0
 48 83  1  0
 83 84  1  0
 83 85  1  0
M  END
> <assay_chembl_id>
CHEMBL4236737

> <assay_description>
Antiproliferative activity against human LNCAP cells after 72 hrs by MTT assay

> <document_journal>
J Med Chem

> <molecule_chembl_id>
CHEMBL4249395

> <standard_value>
67000

> <IC50_uM>
67

> <Activity>
No

> <Canonical_Smiles>
CC(=O)N[C@H](CC(C)C)C(=O)N[C@@H](CC(C)C)C(=O)N[C@@H](CC(C)C)C(=O)N[C@@H](CC(C)C)C(=O)N[C@@H](CCCNC(=N)N)C(=O)N[C@H](C(=O)N[C@@H](CCCCN)C(=O)N[C@@H](CCCNC(=N)N)C(=O)NCCc1ccc(C(=N)N)cc1)C(C)C

$$$$

  SciTegic03142313312D

103105  0  0  1  0            999 V2000
  -30.9459   14.7603    0.0000 C   0  0
  -30.2766   15.5033    0.0000 C   0  0
  -30.7404   16.9298    0.0000 O   0  0
  -28.8087   15.1906    0.0000 N   0  0
  -28.3447   13.7633    0.0000 C   0  0  2  0  0  0
  -29.3514   12.6502    0.0000 C   0  0
  -30.8190   12.9645    0.0000 C   0  0
  -31.8251   11.8520    0.0000 C   0  0
  -31.1262   13.9162    0.0000 C   0  0
  -26.8768   13.4506    0.0000 C   0  0
  -26.2076   14.1936    0.0000 O   0  0
  -26.4128   12.0233    0.0000 N   0  0
  -24.9450   11.7105    0.0000 C   0  0  1  0  0  0
  -23.9428   12.8278    0.0000 C   0  0
  -24.4084   14.2546    0.0000 C   0  0
  -23.4068   15.3712    0.0000 C   0  0
  -25.3869   14.4609    0.0000 C   0  0
  -24.4809   10.2832    0.0000 C   0  0
  -25.1502    9.5402    0.0000 O   0  0
  -23.0131    9.9705    0.0000 N   0  0
  -22.5491    8.5432    0.0000 C   0  0  1  0  0  0
  -23.5558    7.4301    0.0000 C   0  0
  -25.0233    7.7445    0.0000 C   0  0
  -26.0295    6.6320    0.0000 C   0  0
  -25.3305    8.6961    0.0000 C   0  0
  -21.0812    8.2305    0.0000 C   0  0
  -20.4119    8.9735    0.0000 O   0  0
  -20.6172    6.8032    0.0000 N   0  0
  -19.1493    6.4904    0.0000 C   0  0  1  0  0  0
  -18.1471    7.6077    0.0000 C   0  0
  -18.6127    9.0345    0.0000 C   0  0
  -17.6112   10.1511    0.0000 C   0  0
  -19.5912    9.2408    0.0000 C   0  0
  -18.6853    5.0632    0.0000 C   0  0
  -19.6891    3.9486    0.0000 O   0  0
  -17.2174    4.7504    0.0000 N   0  0
  -16.7534    3.3231    0.0000 C   0  0  1  0  0  0
  -17.7601    2.2100    0.0000 C   0  0
  -19.2276    2.5244    0.0000 C   0  0
  -20.2344    1.4113    0.0000 C   0  0
  -21.7019    1.7256    0.0000 N   0  0
  -22.7086    0.6125    0.0000 C   0  0
  -24.1753    0.9267    0.0000 N   0  0
  -22.2478   -0.8149    0.0000 N   0  0
  -15.2855    3.0104    0.0000 C   0  0
  -14.2816    4.1250    0.0000 O   0  0
  -14.8215    1.5831    0.0000 N   0  0
  -13.3536    1.2704    0.0000 C   0  0  2  0  0  0
  -12.8896   -0.1569    0.0000 C   0  0
  -13.8935   -1.2715    0.0000 O   0  0
  -11.4217   -0.4697    0.0000 N   0  0
  -10.9577   -1.8970    0.0000 C   0  0  1  0  0  0
  -11.9644   -3.0101    0.0000 C   0  0
  -13.4320   -2.6957    0.0000 C   0  0
  -14.4387   -3.8088    0.0000 C   0  0
  -15.9062   -3.4945    0.0000 C   0  0
  -16.9124   -4.6070    0.0000 N   0  0
   -9.4898   -2.2097    0.0000 C   0  0
   -8.4860   -1.0951    0.0000 O   0  0
   -9.0258   -3.6370    0.0000 N   0  0
   -7.5579   -3.9497    0.0000 C   0  0  1  0  0  0
   -6.5558   -2.8325    0.0000 C   0  0
   -7.0214   -1.4057    0.0000 C   0  0
   -6.0193   -0.2885    0.0000 C   0  0
   -6.4849    1.1383    0.0000 N   0  0
   -5.4827    2.2556    0.0000 C   0  0
   -5.9481    3.6816    0.0000 N   0  0
   -4.0150    1.9460    0.0000 N   0  0
   -7.0939   -5.3770    0.0000 C   0  0
   -8.0978   -6.4916    0.0000 O   0  0
   -5.6261   -5.6898    0.0000 N   0  0
   -5.1620   -7.1170    0.0000 C   0  0  1  0  0  0
   -6.1659   -8.2316    0.0000 C   0  0
   -3.6942   -7.4298    0.0000 C   0  0
   -2.6903   -6.3152    0.0000 O   0  0
   -3.2302   -8.8571    0.0000 N   0  0
   -1.7623   -9.1698    0.0000 C   0  0  2  0  0  0
   -0.7600   -8.0526    0.0000 C   0  0
    0.7077   -8.3622    0.0000 O   0  0
   -1.2256   -6.6258    0.0000 N   0  0
   -0.2234   -5.5086    0.0000 C   0  0
   -0.6890   -4.0818    0.0000 C   0  0
    0.3114   -2.9665    0.0000 C   0  0
    1.8032   -3.1233    0.0000 C   0  0
    2.4133   -1.7530    0.0000 N   0  0
    1.2990   -0.7500    0.0000 C   0  0
    1.2990    0.7500    0.0000 C   0  0
    0.0000    1.5000    0.0000 C   0  0
   -1.2990    0.7500    0.0000 C   0  0
   -1.2990   -0.7500    0.0000 C   0  0
    0.0000   -1.5000    0.0000 C   0  0
   -1.2966  -10.5966    0.0000 C   0  0
    0.1701  -10.9108    0.0000 C   0  0
    0.6314  -12.3381    0.0000 C   0  0
   -0.3740  -13.4513    0.0000 C   0  0
    0.0846  -14.8803    0.0000 C   0  0
   -0.9224  -15.9920    0.0000 N   0  0
    1.5508  -15.1970    0.0000 N   0  0
   -1.8407  -13.1371    0.0000 C   0  0
   -2.3021  -11.7098    0.0000 C   0  0
  -12.3469    2.3835    0.0000 C   0  0
  -10.8802    2.0693    0.0000 C   0  0
  -12.8077    3.8109    0.0000 C   0  0
  1  2  1  0
  2  3  2  0
  2  4  1  0
  5  4  1  1
  5  6  1  0
  6  7  1  0
  7  8  1  0
  7  9  1  0
  5 10  1  0
 10 11  2  0
 10 12  1  0
 13 12  1  1
 13 14  1  0
 14 15  1  0
 15 16  1  0
 15 17  1  0
 13 18  1  0
 18 19  2  0
 18 20  1  0
 21 20  1  6
 21 22  1  0
 22 23  1  0
 23 24  1  0
 23 25  1  0
 21 26  1  0
 26 27  2  0
 26 28  1  0
 29 28  1  1
 29 30  1  0
 30 31  1  0
 31 32  1  0
 31 33  1  0
 29 34  1  0
 34 35  2  0
 34 36  1  0
 37 36  1  6
 37 38  1  0
 38 39  1  0
 39 40  1  0
 40 41  1  0
 41 42  1  0
 42 43  2  0
 42 44  1  0
 37 45  1  0
 45 46  2  0
 45 47  1  0
 48 47  1  1
 48 49  1  0
 49 50  2  0
 49 51  1  0
 52 51  1  6
 52 53  1  0
 53 54  1  0
 54 55  1  0
 55 56  1  0
 56 57  1  0
 52 58  1  0
 58 59  2  0
 58 60  1  0
 61 60  1  1
 61 62  1  0
 62 63  1  0
 63 64  1  0
 64 65  1  0
 65 66  1  0
 66 67  2  0
 66 68  1  0
 61 69  1  0
 69 70  2  0
 69 71  1  0
 71 72  1  0
 72 73  1  6
 72 74  1  0
 74 75  2  0
 74 76  1  0
 77 76  1  6
 77 78  1  0
 78 79  2  0
 78 80  1  0
 80 81  1  0
 81 82  1  0
 82 83  1  0
 83 84  2  0
 84 85  1  0
 85 86  1  0
 86 87  2  0
 87 88  1  0
 88 89  2  0
 89 90  1  0
 90 91  2  0
 91 83  1  0
 91 86  1  0
 77 92  1  0
 92 93  2  0
 93 94  1  0
 94 95  2  0
 95 96  1  0
 96 97  2  0
 96 98  1  0
 95 99  1  0
 99100  2  0
100 92  1  0
 48101  1  0
101102  1  0
101103  1  0
M  END
> <assay_chembl_id>
CHEMBL4236737

> <assay_description>
Antiproliferative activity against human LNCAP cells after 72 hrs by MTT assay

> <document_journal>
J Med Chem

> <molecule_chembl_id>
CHEMBL4237970

> <standard_value>
70000

> <IC50_uM>
70

> <Activity>
No

> <Canonical_Smiles>
CC(=O)N[C@H](CC(C)C)C(=O)N[C@@H](CC(C)C)C(=O)N[C@@H](CC(C)C)C(=O)N[C@@H](CC(C)C)C(=O)N[C@@H](CCCNC(=N)N)C(=O)N[C@H](C(=O)N[C@@H](CCCCN)C(=O)N[C@@H](CCCNC(=N)N)C(=O)N[C@@H](C)C(=O)N[C@H](C(=O)NCCc1c[nH
]c2ccccc12)c1ccc(C(=N)N)cc1)C(C)C

$$$$

  SciTegic03142313312D

 74 74  0  0  1  0            999 V2000
   19.0170  -28.0515    0.0000 C   0  0
   18.1501  -28.5500    0.0000 C   0  0
   18.1480  -30.0500    0.0000 O   0  0
   16.8519  -27.7969    0.0000 N   0  0
   16.8540  -26.2961    0.0000 C   0  0  2  0  0  0
   18.1566  -25.5506    0.0000 C   0  0
   19.4540  -26.3051    0.0000 C   0  0
   20.7559  -25.5600    0.0000 C   0  0
   19.4505  -27.3051    0.0000 C   0  0
   15.5558  -25.5430    0.0000 C   0  0
   14.6889  -26.0415    0.0000 O   0  0
   15.5580  -24.0422    0.0000 N   0  0
   14.2598  -23.2891    0.0000 C   0  0  1  0  0  0
   12.9602  -24.0399    0.0000 C   0  0
   12.9598  -25.5407    0.0000 C   0  0
   11.6610  -26.2911    0.0000 C   0  0
   13.8258  -26.0407    0.0000 C   0  0
   14.2619  -21.7882    0.0000 C   0  0
   15.1288  -21.2898    0.0000 O   0  0
   12.9637  -21.0352    0.0000 N   0  0
   12.9658  -19.5343    0.0000 C   0  0  1  0  0  0
   14.2684  -18.7889    0.0000 C   0  0
   15.5658  -19.5434    0.0000 C   0  0
   16.8677  -18.7983    0.0000 C   0  0
   15.5623  -20.5434    0.0000 C   0  0
   11.6676  -18.7813    0.0000 C   0  0
   10.8007  -19.2797    0.0000 O   0  0
   11.6698  -17.2804    0.0000 N   0  0
   10.3716  -16.5273    0.0000 C   0  0  1  0  0  0
    9.0720  -17.2782    0.0000 C   0  0
    9.0716  -18.7790    0.0000 C   0  0
    7.7728  -19.5294    0.0000 C   0  0
    9.9376  -19.2790    0.0000 C   0  0
   10.3737  -15.0265    0.0000 C   0  0
   11.6740  -14.2788    0.0000 O   0  0
    9.0755  -14.2734    0.0000 N   0  0
    9.0776  -12.7726    0.0000 C   0  0  1  0  0  0
   10.3802  -12.0271    0.0000 C   0  0
   11.6776  -12.7817    0.0000 C   0  0
   12.9802  -12.0362    0.0000 C   0  0
   14.2776  -12.7907    0.0000 N   0  0
   15.5801  -12.0452    0.0000 C   0  0
   16.8768  -12.7993    0.0000 N   0  0
   15.5854  -10.5452    0.0000 N   0  0
    7.7794  -12.0195    0.0000 C   0  0
    6.4791  -12.7673    0.0000 O   0  0
    7.7815  -10.5187    0.0000 N   0  0
    6.4833   -9.7656    0.0000 C   0  0  2  0  0  0
    6.4855   -8.2648    0.0000 C   0  0
    7.7858   -7.5171    0.0000 O   0  0
    5.1873   -7.5117    0.0000 N   0  0
    5.1894   -6.0109    0.0000 C   0  0  1  0  0  0
    6.4920   -5.2654    0.0000 C   0  0
    7.7894   -6.0199    0.0000 C   0  0
    9.0920   -5.2745    0.0000 C   0  0
   10.3893   -6.0290    0.0000 C   0  0
   11.6912   -5.2839    0.0000 N   0  0
    3.8912   -5.2578    0.0000 C   0  0
    2.5909   -6.0056    0.0000 O   0  0
    3.8933   -3.7570    0.0000 N   0  0
    2.5951   -3.0039    0.0000 C   0  0
    2.5973   -1.5031    0.0000 C   0  0
    1.2990   -0.7500    0.0000 C   0  0
    1.2990    0.7500    0.0000 C   0  0
    0.0000    1.5000    0.0000 C   0  0
   -1.2990    0.7500    0.0000 C   0  0
   -2.6003    1.4977    0.0000 C   0  0
   -3.8983    0.7459    0.0000 N   0  0
   -2.6030    2.9977    0.0000 N   0  0
   -1.2990   -0.7500    0.0000 C   0  0
    0.0000   -1.5000    0.0000 C   0  0
    5.1807  -10.5111    0.0000 C   0  0
    3.8841   -9.7570    0.0000 C   0  0
    5.1755  -12.0111    0.0000 C   0  0
  1  2  1  0
  2  3  2  0
  2  4  1  0
  5  4  1  1
  5  6  1  0
  6  7  1  0
  7  8  1  0
  7  9  1  0
  5 10  1  0
 10 11  2  0
 10 12  1  0
 13 12  1  1
 13 14  1  0
 14 15  1  0
 15 16  1  0
 15 17  1  0
 13 18  1  0
 18 19  2  0
 18 20  1  0
 21 20  1  6
 21 22  1  0
 22 23  1  0
 23 24  1  0
 23 25  1  0
 21 26  1  0
 26 27  2  0
 26 28  1  0
 29 28  1  1
 29 30  1  0
 30 31  1  0
 31 32  1  0
 31 33  1  0
 29 34  1  0
 34 35  2  0
 34 36  1  0
 37 36  1  6
 37 38  1  0
 38 39  1  0
 39 40  1  0
 40 41  1  0
 41 42  1  0
 42 43  2  0
 42 44  1  0
 37 45  1  0
 45 46  2  0
 45 47  1  0
 48 47  1  1
 48 49  1  0
 49 50  2  0
 49 51  1  0
 52 51  1  6
 52 53  1  0
 53 54  1  0
 54 55  1  0
 55 56  1  0
 56 57  1  0
 52 58  1  0
 58 59  2  0
 58 60  1  0
 60 61  1  0
 61 62  1  0
 62 63  1  0
 63 64  2  0
 64 65  1  0
 65 66  2  0
 66 67  1  0
 67 68  2  0
 67 69  1  0
 66 70  1  0
 70 71  2  0
 71 63  1  0
 48 72  1  0
 72 73  1  0
 72 74  1  0
M  END
> <assay_chembl_id>
CHEMBL4261465

> <assay_description>
Antiproliferative activity against human LNCAP cells after 72 hrs by MTT assay

> <document_journal>
J Med Chem

> <molecule_chembl_id>
CHEMBL4277812

> <standard_value>
80000

> <IC50_uM>
80

> <Activity>
No

> <Canonical_Smiles>
CC(=O)N[C@H](CC(C)C)C(=O)N[C@@H](CC(C)C)C(=O)N[C@@H](CC(C)C)C(=O)N[C@@H](CC(C)C)C(=O)N[C@@H](CCCNC(=N)N)C(=O)N[C@H](C(=O)N[C@@H](CCCCN)C(=O)NCCc1ccc(C(=N)N)cc1)C(C)C

$$$$

  SciTegic03142313312D

 74 73  0  0  1  0            999 V2000
    1.3000    1.7500    0.0000 C   0  0
    1.3000    0.7500    0.0000 C   0  0
    0.0007    0.0004    0.0000 O   0  0
    2.6000    0.0000    0.0000 N   0  0
    3.9000    0.7500    0.0000 C   0  0  1  0  0  0
    3.8969    2.2508    0.0000 C   0  0
    2.5961    2.9994    0.0000 C   0  0
    2.5930    4.4994    0.0000 C   0  0
    1.7309    2.4979    0.0000 C   0  0
    5.2000    0.0000    0.0000 C   0  0
    5.2000   -1.0000    0.0000 O   0  0
    6.5000    0.7500    0.0000 N   0  0
    7.7999    0.0000    0.0000 C   0  0  1  0  0  0
    7.7969   -1.5008    0.0000 C   0  0
    6.4960   -2.2494    0.0000 C   0  0
    6.4929   -3.7494    0.0000 C   0  0
    5.6309   -1.7479    0.0000 C   0  0
    9.0999    0.7500    0.0000 C   0  0
    9.0999    1.7500    0.0000 O   0  0
   10.3999    0.0000    0.0000 N   0  0
   11.6999    0.7500    0.0000 C   0  0  1  0  0  0
   11.6968    2.2508    0.0000 C   0  0
   10.3960    2.9994    0.0000 C   0  0
   10.3929    4.4994    0.0000 C   0  0
    9.5309    2.4979    0.0000 C   0  0
   12.9999    0.0000    0.0000 C   0  0
   12.9999   -1.0000    0.0000 O   0  0
   14.2999    0.7500    0.0000 N   0  0
   15.5999    0.0000    0.0000 C   0  0  1  0  0  0
   15.5968   -1.5008    0.0000 C   0  0
   14.2960   -2.2494    0.0000 C   0  0
   14.2929   -3.7494    0.0000 C   0  0
   13.4308   -1.7479    0.0000 C   0  0
   16.8999    0.7500    0.0000 C   0  0
   16.8999    2.2500    0.0000 O   0  0
   18.1999    0.0000    0.0000 N   0  0
   19.4998    0.7500    0.0000 C   0  0  1  0  0  0
   19.4968    2.2508    0.0000 C   0  0
   18.1959    2.9994    0.0000 C   0  0
   18.1929    4.5002    0.0000 C   0  0
   16.8920    5.2488    0.0000 N   0  0
   16.8889    6.7496    0.0000 C   0  0
   15.5888    7.4977    0.0000 N   0  0
   18.1867    7.5019    0.0000 N   0  0
   20.7998    0.0000    0.0000 C   0  0
   20.7998   -1.5000    0.0000 O   0  0
   22.0998    0.7500    0.0000 N   0  0
   23.3998    0.0000    0.0000 C   0  0  2  0  0  0
   24.6998    0.7500    0.0000 C   0  0
   24.6998    2.2500    0.0000 O   0  0
   25.9998    0.0000    0.0000 N   0  0
   27.2998    0.7500    0.0000 C   0  0  1  0  0  0
   27.2967    2.2508    0.0000 C   0  0
   25.9959    2.9994    0.0000 C   0  0
   25.9928    4.5002    0.0000 C   0  0
   24.6920    5.2488    0.0000 C   0  0
   24.6889    6.7488    0.0000 N   0  0
   28.5998    0.0000    0.0000 C   0  0
   28.5998   -1.5000    0.0000 O   0  0
   29.8998    0.7500    0.0000 N   0  0
   31.1998    0.0000    0.0000 C   0  0  1  0  0  0
   32.4998    0.7500    0.0000 C   0  0
   33.7997    0.0000    0.0000 C   0  0
   35.0997    0.7500    0.0000 C   0  0
   36.3997    0.0000    0.0000 N   0  0
   37.6997    0.7500    0.0000 C   0  0
   38.9990    0.0004    0.0000 N   0  0
   37.6997    2.2500    0.0000 N   0  0
   31.2028   -1.5008    0.0000 C   0  0
   29.9051   -2.2531    0.0000 N   0  0
   32.5030   -2.2490    0.0000 O   0  0
   23.4029   -1.5008    0.0000 C   0  0
   24.7030   -2.2490    0.0000 C   0  0
   22.1052   -2.2531    0.0000 C   0  0
  1  2  1  0
  2  3  2  0
  2  4  1  0
  5  4  1  1
  5  6  1  0
  6  7  1  0
  7  8  1  0
  7  9  1  0
  5 10  1  0
 10 11  2  0
 10 12  1  0
 13 12  1  6
 13 14  1  0
 14 15  1  0
 15 16  1  0
 15 17  1  0
 13 18  1  0
 18 19  2  0
 18 20  1  0
 21 20  1  1
 21 22  1  0
 22 23  1  0
 23 24  1  0
 23 25  1  0
 21 26  1  0
 26 27  2  0
 26 28  1  0
 29 28  1  6
 29 30  1  0
 30 31  1  0
 31 32  1  0
 31 33  1  0
 29 34  1  0
 34 35  2  0
 34 36  1  0
 37 36  1  1
 37 38  1  0
 38 39  1  0
 39 40  1  0
 40 41  1  0
 41 42  1  0
 42 43  2  0
 42 44  1  0
 37 45  1  0
 45 46  2  0
 45 47  1  0
 48 47  1  6
 48 49  1  0
 49 50  2  0
 49 51  1  0
 52 51  1  1
 52 53  1  0
 53 54  1  0
 54 55  1  0
 55 56  1  0
 56 57  1  0
 52 58  1  0
 58 59  2  0
 58 60  1  0
 61 60  1  1
 61 62  1  0
 62 63  1  0
 63 64  1  0
 64 65  1  0
 65 66  1  0
 66 67  2  0
 66 68  1  0
 61 69  1  0
 69 70  1  0
 69 71  2  0
 48 72  1  0
 72 73  1  0
 72 74  1  0
M  END
> <assay_chembl_id>
CHEMBL4261465

> <assay_description>
Antiproliferative activity against human LNCAP cells after 72 hrs by MTT assay

> <document_journal>
J Med Chem

> <molecule_chembl_id>
CHEMBL2179435

> <standard_value>
45000

> <IC50_uM>
45

> <Activity>
No

> <Canonical_Smiles>
CC(=O)N[C@@H](CC(C)C)C(=O)N[C@@H](CC(C)C)C(=O)N[C@@H](CC(C)C)C(=O)N[C@@H](CC(C)C)C(=O)N[C@@H](CCCNC(=N)N)C(=O)N[C@H](C(=O)N[C@@H](CCCCN)C(=O)N[C@@H](CCCNC(=N)N)C(N)=O)C(C)C

$$$$

  SciTegic03142313312D

 74 74  0  0  1  0            999 V2000
   15.9850  -28.2954    0.0000 C   0  0
   16.8519  -27.7969    0.0000 C   0  0
   18.1494  -28.5495    0.0000 O   0  0
   16.8540  -26.2961    0.0000 N   0  0
   15.5558  -25.5430    0.0000 C   0  0  2  0  0  0
   14.2563  -26.2938    0.0000 C   0  0
   14.2558  -27.7946    0.0000 C   0  0
   12.9570  -28.5450    0.0000 C   0  0
   15.1219  -28.2946    0.0000 C   0  0
   15.5580  -24.0422    0.0000 C   0  0
   16.4249  -23.5437    0.0000 O   0  0
   14.2598  -23.2891    0.0000 N   0  0
   14.2619  -21.7882    0.0000 C   0  0  1  0  0  0
   15.5645  -21.0428    0.0000 C   0  0
   16.8619  -21.7973    0.0000 C   0  0
   18.1638  -21.0522    0.0000 C   0  0
   16.8584  -22.7973    0.0000 C   0  0
   12.9637  -21.0352    0.0000 C   0  0
   12.0968  -21.5337    0.0000 O   0  0
   12.9658  -19.5343    0.0000 N   0  0
   11.6676  -18.7813    0.0000 C   0  0  1  0  0  0
   10.3681  -19.5321    0.0000 C   0  0
   10.3676  -21.0329    0.0000 C   0  0
    9.0688  -21.7833    0.0000 C   0  0
   11.2337  -21.5329    0.0000 C   0  0
   11.6698  -17.2804    0.0000 C   0  0
   12.5367  -16.7819    0.0000 O   0  0
   10.3716  -16.5273    0.0000 N   0  0
   10.3737  -15.0265    0.0000 C   0  0  1  0  0  0
   11.6763  -14.2810    0.0000 C   0  0
   12.9737  -15.0356    0.0000 C   0  0
   14.2755  -14.2905    0.0000 C   0  0
   12.9702  -16.0356    0.0000 C   0  0
    9.0755  -14.2734    0.0000 C   0  0
    7.7751  -15.0212    0.0000 O   0  0
    9.0776  -12.7726    0.0000 N   0  0
    7.7794  -12.0195    0.0000 C   0  0  1  0  0  0
    6.4799  -12.7704    0.0000 C   0  0
    6.4794  -14.2712    0.0000 C   0  0
    5.1799  -15.0220    0.0000 C   0  0
    5.1794  -16.5228    0.0000 N   0  0
    3.8799  -17.2737    0.0000 C   0  0
    3.8794  -18.7737    0.0000 N   0  0
    2.5809  -16.5237    0.0000 N   0  0
    7.7815  -10.5187    0.0000 C   0  0
    9.0819   -9.7710    0.0000 O   0  0
    6.4833   -9.7656    0.0000 N   0  0
    6.4855   -8.2648    0.0000 C   0  0  2  0  0  0
    5.1873   -7.5117    0.0000 C   0  0
    3.8869   -8.2595    0.0000 O   0  0
    5.1894   -6.0109    0.0000 N   0  0
    3.8912   -5.2578    0.0000 C   0  0  1  0  0  0
    2.5917   -6.0086    0.0000 C   0  0
    2.5912   -7.5095    0.0000 C   0  0
    1.2917   -8.2603    0.0000 C   0  0
    1.2912   -9.7611    0.0000 C   0  0
   -0.0076  -10.5115    0.0000 N   0  0
    3.8933   -3.7570    0.0000 C   0  0
    5.1937   -3.0093    0.0000 O   0  0
    2.5951   -3.0039    0.0000 N   0  0
    2.5973   -1.5031    0.0000 C   0  0
    1.2990   -0.7500    0.0000 C   0  0
    1.2990    0.7500    0.0000 C   0  0
    0.0000    1.5000    0.0000 C   0  0
   -1.2990    0.7500    0.0000 C   0  0
   -2.5973    1.5031    0.0000 C   0  0
   -2.5951    3.0031    0.0000 N   0  0
   -3.8976    0.7553    0.0000 N   0  0
   -1.2990   -0.7500    0.0000 C   0  0
   -2.5981   -1.5000    0.0000 N   0  0
    0.0000   -1.5000    0.0000 C   0  0
    7.7850   -7.5140    0.0000 C   0  0
    7.7855   -6.0140    0.0000 C   0  0
    9.0840   -8.2640    0.0000 C   0  0
  1  2  1  0
  2  3  2  0
  2  4  1  0
  5  4  1  6
  5  6  1  0
  6  7  1  0
  7  8  1  0
  7  9  1  0
  5 10  1  0
 10 11  2  0
 10 12  1  0
 13 12  1  6
 13 14  1  0
 14 15  1  0
 15 16  1  0
 15 17  1  0
 13 18  1  0
 18 19  2  0
 18 20  1  0
 21 20  1  1
 21 22  1  0
 22 23  1  0
 23 24  1  0
 23 25  1  0
 21 26  1  0
 26 27  2  0
 26 28  1  0
 29 28  1  6
 29 30  1  0
 30 31  1  0
 31 32  1  0
 31 33  1  0
 29 34  1  0
 34 35  2  0
 34 36  1  0
 37 36  1  1
 37 38  1  0
 38 39  1  0
 39 40  1  0
 40 41  1  0
 41 42  1  0
 42 43  2  0
 42 44  1  0
 37 45  1  0
 45 46  2  0
 45 47  1  0
 48 47  1  6
 48 49  1  0
 49 50  2  0
 49 51  1  0
 52 51  1  1
 52 53  1  0
 53 54  1  0
 54 55  1  0
 55 56  1  0
 56 57  1  0
 52 58  1  0
 58 59  2  0
 58 60  1  0
 60 61  1  0
 61 62  1  0
 62 63  2  0
 63 64  1  0
 64 65  2  0
 65 66  1  0
 66 67  2  0
 66 68  1  0
 65 69  1  0
 69 70  1  0
 69 71  2  0
 71 62  1  0
 48 72  1  0
 72 73  1  0
 72 74  1  0
M  END
> <assay_chembl_id>
CHEMBL4261465

> <assay_description>
Antiproliferative activity against human LNCAP cells after 72 hrs by MTT assay

> <document_journal>
J Med Chem

> <molecule_chembl_id>
CHEMBL4278214

> <standard_value>
58000

> <IC50_uM>
58

> <Activity>
No

> <Canonical_Smiles>
CC(=O)N[C@H](CC(C)C)C(=O)N[C@@H](CC(C)C)C(=O)N[C@@H](CC(C)C)C(=O)N[C@@H](CC(C)C)C(=O)N[C@@H](CCCNC(=N)N)C(=O)N[C@H](C(=O)N[C@@H](CCCCN)C(=O)NCc1ccc(C(=N)N)c(N)c1)C(C)C

$$$$

  SciTegic03142313312D

 28 30  0  0  0  0            999 V2000
    3.8964    0.7545    0.0000 O   0  0
    3.8990   -0.7455    0.0000 C   0  0
    2.6003   -1.4977    0.0000 N   0  0
    1.2990   -0.7500    0.0000 C   0  0
    1.2990    0.7500    0.0000 C   0  0
    0.0000    1.5000    0.0000 C   0  0
   -1.2990    0.7500    0.0000 C   0  0
   -1.2990   -0.7500    0.0000 C   0  0
    0.0000   -1.5000    0.0000 C   0  0
    0.0000   -3.0008    0.0000 C   0  0
   -1.2986   -3.7517    0.0000 F   0  0
    1.2993   -3.7504    0.0000 F   0  0
    0.0007   -4.5008    0.0000 F   0  0
    5.2003   -1.4932    0.0000 C   0  0
    6.4994   -0.7432    0.0000 C   0  0
    7.7985   -1.4932    0.0000 C   0  0
    7.7985   -2.9932    0.0000 C   0  0
    9.0967   -3.7463    0.0000 S   0  0  3  0  0  0
   10.3971   -2.9985    0.0000 O   0  0
    9.0946   -5.2471    0.0000 C   0  0
   10.3911   -6.0016    0.0000 C   0  0
   10.3859   -7.5016    0.0000 C   0  0
    9.0843   -8.2472    0.0000 C   0  0
    9.0792   -9.7472    0.0000 O   0  0
    7.7879   -7.4927    0.0000 C   0  0
    7.7930   -5.9927    0.0000 C   0  0
    6.4995   -3.7432    0.0000 C   0  0
    5.2004   -2.9933    0.0000 C   0  0
  1  2  2  0
  2  3  1  0
  3  4  1  0
  4  5  2  0
  5  6  1  0
  6  7  2  0
  7  8  1  0
  8  9  2  0
  9  4  1  0
  9 10  1  0
 10 11  1  0
 10 12  1  0
 10 13  1  0
  2 14  1  0
 14 15  2  0
 15 16  1  0
 16 17  2  0
 18 17  1  4
 18 19  2  0
 18 20  1  0
 20 21  2  0
 21 22  1  0
 22 23  2  0
 23 24  1  0
 23 25  1  0
 25 26  2  0
 26 20  1  0
 17 27  1  0
 27 28  2  0
 28 14  1  0
M  END
> <assay_chembl_id>
CHEMBL4262717

> <assay_description>
Antiproliferative activity against human LNCAP cells after 96 hrs by propidium iodide staining-based fluorescence assay

> <document_journal>
Medchemcomm

> <molecule_chembl_id>
CHEMBL4278955

> <standard_value>
61980

> <IC50_uM>
61.98

> <Activity>
No

> <Canonical_Smiles>
O=C(Nc1ccccc1C(F)(F)F)c1ccc([S+]([O-])c2ccc(O)cc2)cc1

$$$$

  SciTegic03142313312D

 29 31  0  0  0  0            999 V2000
    3.8964    0.7545    0.0000 O   0  0
    3.8990   -0.7455    0.0000 C   0  0
    2.6003   -1.4977    0.0000 N   0  0
    1.2990   -0.7500    0.0000 C   0  0
    1.2990    0.7500    0.0000 C   0  0
    0.0000    1.5000    0.0000 C   0  0
   -1.2990    0.7500    0.0000 C   0  0
   -1.2990   -0.7500    0.0000 C   0  0
    0.0000   -1.5000    0.0000 C   0  0
    0.0000   -3.0008    0.0000 C   0  0
   -1.2986   -3.7517    0.0000 F   0  0
    1.2993   -3.7504    0.0000 F   0  0
    0.0007   -4.5008    0.0000 F   0  0
    5.2003   -1.4932    0.0000 C   0  0
    6.4994   -0.7432    0.0000 C   0  0
    7.7985   -1.4932    0.0000 C   0  0
    7.7985   -2.9932    0.0000 C   0  0
    9.0983   -3.7436    0.0000 S   0  0
    9.0978   -5.2436    0.0000 O   0  0
    7.7991   -4.4934    0.0000 O   0  0
   10.3985   -2.9940    0.0000 C   0  0
   11.6971   -3.7448    0.0000 C   0  0
   12.9966   -2.9955    0.0000 C   0  0
   12.9975   -1.4955    0.0000 C   0  0
   14.2970   -0.7463    0.0000 O   0  0
   11.6989   -0.7448    0.0000 C   0  0
   10.3994   -1.4940    0.0000 C   0  0
    6.4995   -3.7432    0.0000 C   0  0
    5.2004   -2.9933    0.0000 C   0  0
  1  2  2  0
  2  3  1  0
  3  4  1  0
  4  5  2  0
  5  6  1  0
  6  7  2  0
  7  8  1  0
  8  9  2  0
  9  4  1  0
  9 10  1  0
 10 11  1  0
 10 12  1  0
 10 13  1  0
  2 14  1  0
 14 15  2  0
 15 16  1  0
 16 17  2  0
 17 18  1  0
 18 19  2  0
 18 20  2  0
 18 21  1  0
 21 22  2  0
 22 23  1  0
 23 24  2  0
 24 25  1  0
 24 26  1  0
 26 27  2  0
 27 21  1  0
 17 28  1  0
 28 29  2  0
 29 14  1  0
M  END
> <assay_chembl_id>
CHEMBL4262717

> <assay_description>
Antiproliferative activity against human LNCAP cells after 96 hrs by propidium iodide staining-based fluorescence assay

> <document_journal>
Medchemcomm

> <molecule_chembl_id>
CHEMBL4289627

> <standard_value>
39310

> <IC50_uM>
39.31

> <Activity>
No

> <Canonical_Smiles>
O=C(Nc1ccccc1C(F)(F)F)c1ccc(S(=O)(=O)c2ccc(O)cc2)cc1

$$$$

  SciTegic03142313312D

 30 32  0  0  0  0            999 V2000
   -0.8660   -4.5000    0.0000 O   0  0
   -1.3660   -5.3660    0.0000 C   0  0
   -0.8660   -6.2320    0.0000 N   0  0
    0.1340   -6.2320    0.0000 C   0  0
    0.6340   -7.0980    0.0000 C   0  0
    1.6340   -7.0980    0.0000 C   0  0
    2.1340   -6.2320    0.0000 C   0  0
    3.1340   -6.2320    0.0000 S   0  0
    2.6340   -5.3660    0.0000 F   0  0
    3.6340   -5.3660    0.0000 F   0  0
    4.1340   -6.2320    0.0000 F   0  0
    3.6339   -7.0980    0.0000 F   0  0
    2.6339   -7.0980    0.0000 F   0  0
    1.6340   -5.3660    0.0000 C   0  0
    0.6340   -5.3660    0.0000 C   0  0
   -2.3660   -5.3660    0.0000 C   0  0
   -2.8660   -4.5000    0.0000 C   0  0
   -3.8660   -4.5000    0.0000 C   0  0
   -4.3660   -5.3660    0.0000 C   0  0
   -5.3660   -5.3660    0.0000 S   0  0  3  0  0  0
   -5.8660   -6.2320    0.0000 O   0  0
   -5.8659   -4.5000    0.0000 C   0  0
   -6.8659   -4.5000    0.0000 C   0  0
   -7.3659   -3.6340    0.0000 C   0  0
   -6.8660   -2.7680    0.0000 C   0  0
   -7.3659   -1.9019    0.0000 O   0  0
   -5.8660   -2.7680    0.0000 C   0  0
   -5.3659   -3.6340    0.0000 C   0  0
   -3.8660   -6.2320    0.0000 C   0  0
   -2.8660   -6.2320    0.0000 C   0  0
  1  2  2  0
  2  3  1  0
  3  4  1  0
  4  5  2  0
  5  6  1  0
  6  7  2  0
  7  8  1  0
  8  9  1  0
  8 10  1  0
  8 11  1  0
  8 12  1  0
  8 13  1  0
  7 14  1  0
 14 15  2  0
 15  4  1  0
  2 16  1  0
 16 17  2  0
 17 18  1  0
 18 19  2  0
 20 19  1  4
 20 21  2  0
 20 22  1  0
 22 23  2  0
 23 24  1  0
 24 25  2  0
 25 26  1  0
 25 27  1  0
 27 28  2  0
 28 22  1  0
 19 29  1  0
 29 30  2  0
 30 16  1  0
M  END
> <assay_chembl_id>
CHEMBL4262717

> <assay_description>
Antiproliferative activity against human LNCAP cells after 96 hrs by propidium iodide staining-based fluorescence assay

> <document_journal>
Medchemcomm

> <molecule_chembl_id>
CHEMBL4282806

> <standard_value>
900

> <IC50_uM>
0.9

> <Activity>
Yes

> <Canonical_Smiles>
O=C(Nc1ccc(S(F)(F)(F)(F)F)cc1)c1ccc([S+]([O-])c2ccc(O)cc2)cc1

$$$$

  SciTegic03142313312D

 33 35  0  0  0  0            999 V2000
    3.8964    0.7545    0.0000 O   0  0
    3.8990   -0.7455    0.0000 C   0  0
    2.6003   -1.4977    0.0000 N   0  0
    1.2990   -0.7500    0.0000 C   0  0
    1.2990    0.7500    0.0000 C   0  0
    0.0000    1.5000    0.0000 C   0  0
    0.0000    3.0008    0.0000 C   0  0
    1.2985    3.7517    0.0000 F   0  0
   -1.2993    3.7504    0.0000 F   0  0
   -0.0007    4.5008    0.0000 F   0  0
   -1.2990    0.7500    0.0000 C   0  0
   -1.2990   -0.7500    0.0000 C   0  0
    0.0000   -1.5000    0.0000 C   0  0
    0.0000   -3.0008    0.0000 C   0  0
   -1.2986   -3.7517    0.0000 F   0  0
    1.2993   -3.7504    0.0000 F   0  0
    0.0007   -4.5008    0.0000 F   0  0
    5.2003   -1.4932    0.0000 C   0  0
    6.4994   -0.7432    0.0000 C   0  0
    7.7985   -1.4932    0.0000 C   0  0
    7.7985   -2.9932    0.0000 C   0  0
    9.0983   -3.7436    0.0000 S   0  0
    9.0978   -5.2436    0.0000 O   0  0
    7.7991   -4.4934    0.0000 O   0  0
   10.3985   -2.9940    0.0000 C   0  0
   11.6971   -3.7448    0.0000 C   0  0
   12.9966   -2.9955    0.0000 C   0  0
   12.9975   -1.4955    0.0000 C   0  0
   14.2970   -0.7463    0.0000 O   0  0
   11.6989   -0.7448    0.0000 C   0  0
   10.3994   -1.4940    0.0000 C   0  0
    6.4995   -3.7432    0.0000 C   0  0
    5.2004   -2.9933    0.0000 C   0  0
  1  2  2  0
  2  3  1  0
  3  4  1  0
  4  5  2  0
  5  6  1  0
  6  7  1  0
  7  8  1  0
  7  9  1  0
  7 10  1  0
  6 11  2  0
 11 12  1  0
 12 13  2  0
 13  4  1  0
 13 14  1  0
 14 15  1  0
 14 16  1  0
 14 17  1  0
  2 18  1  0
 18 19  2  0
 19 20  1  0
 20 21  2  0
 21 22  1  0
 22 23  2  0
 22 24  2  0
 22 25  1  0
 25 26  2  0
 26 27  1  0
 27 28  2  0
 28 29  1  0
 28 30  1  0
 30 31  2  0
 31 25  1  0
 21 32  1  0
 32 33  2  0
 33 18  1  0
M  END
> <assay_chembl_id>
CHEMBL4262717

> <assay_description>
Antiproliferative activity against human LNCAP cells after 96 hrs by propidium iodide staining-based fluorescence assay

> <document_journal>
Medchemcomm

> <molecule_chembl_id>
CHEMBL4279355

> <standard_value>
23180

> <IC50_uM>
23.18

> <Activity>
No

> <Canonical_Smiles>
O=C(Nc1cc(C(F)(F)F)ccc1C(F)(F)F)c1ccc(S(=O)(=O)c2ccc(O)cc2)cc1

$$$$

  SciTegic03142313312D

 29 31  0  0  0  0            999 V2000
    6.4833   -9.7648    0.0000 C   0  0
    6.4855   -8.2648    0.0000 C   0  0
    5.1873   -7.5117    0.0000 C   0  0
    5.1894   -6.0109    0.0000 C   0  0
    3.8912   -5.2578    0.0000 C   0  0
    3.8933   -3.7570    0.0000 C   0  0
    2.5951   -3.0039    0.0000 C   0  0
    2.5973   -1.5031    0.0000 O   0  0
    1.2990   -0.7500    0.0000 C   0  0
    1.2990    0.7500    0.0000 C   0  0
    2.5987    1.5004    0.0000 C   0  0
    3.8991    0.7525    0.0000 C   0  0
    5.1969    1.5046    0.0000 C   0  0
    5.1945    3.0046    0.0000 C   0  0
    6.4946    3.7544    0.0000 O   0  0
    7.7938    3.0046    0.0000 C   0  0
    3.8943    3.7525    0.0000 C   0  0
    3.8888    5.2533    0.0000 O   0  0
    2.5875    5.9994    0.0000 C   0  0
    2.5964    3.0004    0.0000 C   0  0
    0.0000    1.5000    0.0000 O   0  0
   -1.2990    0.7500    0.0000 C   0  0
   -2.5981    1.5000    0.0000 C   0  0
   -3.8971    0.7500    0.0000 C   0  0
   -3.8971   -0.7500    0.0000 C   0  0
   -2.5981   -1.5000    0.0000 C   0  0
   -1.2990   -0.7500    0.0000 C   0  0
    0.0000   -1.5000    0.0000 C   0  0
    0.0000   -3.0000    0.0000 O   0  0
  1  2  1  0
  2  3  1  0
  3  4  1  0
  4  5  1  0
  5  6  1  0
  6  7  1  0
  7  8  1  0
  8  9  1  0
  9 10  2  0
 10 11  1  0
 11 12  2  0
 12 13  1  0
 13 14  2  0
 14 15  1  0
 15 16  1  0
 14 17  1  0
 17 18  1  0
 18 19  1  0
 17 20  2  0
 20 11  1  0
 10 21  1  0
 21 22  1  0
 22 23  2  0
 23 24  1  0
 24 25  2  0
 25 26  1  0
 26 27  2  0
 27 22  1  0
 27 28  1  0
 28  9  1  0
 28 29  2  0
M  END
> <assay_chembl_id>
CHEMBL4275399

> <assay_description>
Antiproliferative activity against human LNCAP cells after 3 days by WST-1 assay

> <document_journal>
Eur J Med Chem

> <molecule_chembl_id>
CHEMBL4287783

> <standard_value>
43900

> <IC50_uM>
43.9

> <Activity>
No

> <Canonical_Smiles>
CCCCCCCOc1c(-c2ccc(OC)c(OC)c2)oc2ccccc2c1=O

$$$$

  SciTegic03142313312D

 31 33  0  0  0  0            999 V2000
    6.4833   -9.7648    0.0000 C   0  0
    6.4855   -8.2648    0.0000 C   0  0
    5.1873   -7.5117    0.0000 N   0  0
    3.8847   -8.2572    0.0000 C   0  0
    2.5880   -7.5031    0.0000 C   0  0
    5.1894   -6.0109    0.0000 C   0  0
    3.8912   -5.2578    0.0000 C   0  0
    3.8933   -3.7570    0.0000 C   0  0
    2.5951   -3.0039    0.0000 C   0  0
    2.5973   -1.5031    0.0000 O   0  0
    1.2990   -0.7500    0.0000 C   0  0
    1.2990    0.7500    0.0000 C   0  0
    2.5987    1.5004    0.0000 C   0  0
    3.8991    0.7525    0.0000 C   0  0
    5.1969    1.5046    0.0000 C   0  0
    5.1945    3.0046    0.0000 C   0  0
    6.4946    3.7544    0.0000 O   0  0
    7.7938    3.0046    0.0000 C   0  0
    3.8943    3.7525    0.0000 C   0  0
    3.8888    5.2533    0.0000 O   0  0
    2.5875    5.9994    0.0000 C   0  0
    2.5964    3.0004    0.0000 C   0  0
    0.0000    1.5000    0.0000 O   0  0
   -1.2990    0.7500    0.0000 C   0  0
   -2.5981    1.5000    0.0000 C   0  0
   -3.8971    0.7500    0.0000 C   0  0
   -3.8971   -0.7500    0.0000 C   0  0
   -2.5981   -1.5000    0.0000 C   0  0
   -1.2990   -0.7500    0.0000 C   0  0
    0.0000   -1.5000    0.0000 C   0  0
    0.0000   -3.0000    0.0000 O   0  0
  1  2  1  0
  2  3  1  0
  3  4  1  0
  4  5  1  0
  3  6  1  0
  6  7  1  0
  7  8  1  0
  8  9  1  0
  9 10  1  0
 10 11  1  0
 11 12  2  0
 12 13  1  0
 13 14  2  0
 14 15  1  0
 15 16  2  0
 16 17  1  0
 17 18  1  0
 16 19  1  0
 19 20  1  0
 20 21  1  0
 19 22  2  0
 22 13  1  0
 12 23  1  0
 23 24  1  0
 24 25  2  0
 25 26  1  0
 26 27  2  0
 27 28  1  0
 28 29  2  0
 29 24  1  0
 29 30  1  0
 30 11  1  0
 30 31  2  0
M  END
> <assay_chembl_id>
CHEMBL4275399

> <assay_description>
Antiproliferative activity against human LNCAP cells after 3 days by WST-1 assay

> <document_journal>
Eur J Med Chem

> <molecule_chembl_id>
CHEMBL4291604

> <standard_value>
40500

> <IC50_uM>
40.5

> <Activity>
No

> <Canonical_Smiles>
CCN(CC)CCCCOc1c(-c2ccc(OC)c(OC)c2)oc2ccccc2c1=O

$$$$

  SciTegic03142313312D

 31 34  0  0  0  0            999 V2000
    7.7938   -3.0046    0.0000 C   0  0
    6.4946   -3.7543    0.0000 O   0  0
    5.1945   -3.0045    0.0000 C   0  0
    5.1969   -1.5045    0.0000 C   0  0
    3.8991   -0.7525    0.0000 C   0  0
    2.5987   -1.5004    0.0000 C   0  0
    1.2990   -0.7500    0.0000 C   0  0
    0.0000   -1.5000    0.0000 O   0  0
   -1.2990   -0.7500    0.0000 C   0  0
   -2.5981   -1.5000    0.0000 C   0  0
   -3.8971   -0.7500    0.0000 C   0  0
   -3.8971    0.7500    0.0000 C   0  0
   -2.5981    1.5000    0.0000 C   0  0
   -1.2990    0.7500    0.0000 C   0  0
    0.0000    1.5000    0.0000 C   0  0
    0.0000    3.0000    0.0000 O   0  0
    1.2990    0.7500    0.0000 C   0  0
    2.6003    1.4977    0.0000 O   0  0
    3.8990    0.7455    0.0000 C   0  0
    5.2003    1.4932    0.0000 C   0  0
    6.4990    0.7410    0.0000 C   0  0
    7.8003    1.4887    0.0000 N   0  0
    9.0994    0.7388    0.0000 C   0  0
   10.3984    1.4887    0.0000 C   0  0
   10.3985    2.9887    0.0000 C   0  0
    9.0994    3.7388    0.0000 C   0  0
    7.8004    2.9888    0.0000 C   0  0
    2.5965   -3.0004    0.0000 C   0  0
    3.8943   -3.7525    0.0000 C   0  0
    3.8888   -5.2533    0.0000 O   0  0
    2.5875   -5.9994    0.0000 C   0  0
  1  2  1  0
  2  3  1  0
  3  4  2  0
  4  5  1  0
  5  6  2  0
  6  7  1  0
  7  8  1  0
  8  9  1  0
  9 10  2  0
 10 11  1  0
 11 12  2  0
 12 13  1  0
 13 14  2  0
 14  9  1  0
 14 15  1  0
 15 16  2  0
 15 17  1  0
 17  7  2  0
 17 18  1  0
 18 19  1  0
 19 20  1  0
 20 21  1  0
 21 22  1  0
 22 23  1  0
 23 24  1  0
 24 25  1  0
 25 26  1  0
 26 27  1  0
 27 22  1  0
  6 28  1  0
 28 29  2  0
 29  3  1  0
 29 30  1  0
 30 31  1  0
M  END
> <assay_chembl_id>
CHEMBL4275399

> <assay_description>
Antiproliferative activity against human LNCAP cells after 3 days by WST-1 assay

> <document_journal>
Eur J Med Chem

> <molecule_chembl_id>
CHEMBL4278194

> <standard_value>
36000

> <IC50_uM>
36

> <Activity>
No

> <Canonical_Smiles>
COc1ccc(-c2oc3ccccc3c(=O)c2OCCCN2CCCCC2)cc1OC

$$$$

  SciTegic03142313312D

 32 35  0  0  0  0            999 V2000
    7.7938   -3.0046    0.0000 C   0  0
    6.4946   -3.7543    0.0000 O   0  0
    5.1945   -3.0045    0.0000 C   0  0
    5.1969   -1.5045    0.0000 C   0  0
    3.8991   -0.7525    0.0000 C   0  0
    2.5987   -1.5004    0.0000 C   0  0
    1.2990   -0.7500    0.0000 C   0  0
    0.0000   -1.5000    0.0000 O   0  0
   -1.2990   -0.7500    0.0000 C   0  0
   -2.5981   -1.5000    0.0000 C   0  0
   -3.8971   -0.7500    0.0000 C   0  0
   -3.8971    0.7500    0.0000 C   0  0
   -2.5981    1.5000    0.0000 C   0  0
   -1.2990    0.7500    0.0000 C   0  0
    0.0000    1.5000    0.0000 C   0  0
    0.0000    3.0000    0.0000 O   0  0
    1.2990    0.7500    0.0000 C   0  0
    2.6003    1.4977    0.0000 O   0  0
    3.8990    0.7455    0.0000 C   0  0
    5.2003    1.4932    0.0000 C   0  0
    6.4990    0.7410    0.0000 C   0  0
    7.8003    1.4887    0.0000 C   0  0
    9.0990    0.7365    0.0000 N   0  0
   10.4007    1.4819    0.0000 C   0  0
   11.6971    0.7274    0.0000 C   0  0
   11.6919   -0.7726    0.0000 C   0  0
   10.3903   -1.5181    0.0000 C   0  0
    9.0939   -0.7636    0.0000 C   0  0
    2.5965   -3.0004    0.0000 C   0  0
    3.8943   -3.7525    0.0000 C   0  0
    3.8888   -5.2533    0.0000 O   0  0
    2.5875   -5.9994    0.0000 C   0  0
  1  2  1  0
  2  3  1  0
  3  4  2  0
  4  5  1  0
  5  6  2  0
  6  7  1  0
  7  8  1  0
  8  9  1  0
  9 10  2  0
 10 11  1  0
 11 12  2  0
 12 13  1  0
 13 14  2  0
 14  9  1  0
 14 15  1  0
 15 16  2  0
 15 17  1  0
 17  7  2  0
 17 18  1  0
 18 19  1  0
 19 20  1  0
 20 21  1  0
 21 22  1  0
 22 23  1  0
 23 24  1  0
 24 25  1  0
 25 26  1  0
 26 27  1  0
 27 28  1  0
 28 23  1  0
  6 29  1  0
 29 30  2  0
 30  3  1  0
 30 31  1  0
 31 32  1  0
M  END
> <assay_chembl_id>
CHEMBL4275399

> <assay_description>
Antiproliferative activity against human LNCAP cells after 3 days by WST-1 assay

> <document_journal>
Eur J Med Chem

> <molecule_chembl_id>
CHEMBL4294419

> <standard_value>
24100

> <IC50_uM>
24.1

> <Activity>
No

> <Canonical_Smiles>
COc1ccc(-c2oc3ccccc3c(=O)c2OCCCCN2CCCCC2)cc1OC

$$$$

  SciTegic03142313312D

 33 36  0  0  0  0            999 V2000
    7.7938   -3.0046    0.0000 C   0  0
    6.4946   -3.7543    0.0000 O   0  0
    5.1945   -3.0045    0.0000 C   0  0
    5.1969   -1.5045    0.0000 C   0  0
    3.8991   -0.7525    0.0000 C   0  0
    2.5987   -1.5004    0.0000 C   0  0
    1.2990   -0.7500    0.0000 C   0  0
    0.0000   -1.5000    0.0000 O   0  0
   -1.2990   -0.7500    0.0000 C   0  0
   -2.5981   -1.5000    0.0000 C   0  0
   -3.8971   -0.7500    0.0000 C   0  0
   -3.8971    0.7500    0.0000 C   0  0
   -2.5981    1.5000    0.0000 C   0  0
   -1.2990    0.7500    0.0000 C   0  0
    0.0000    1.5000    0.0000 C   0  0
    0.0000    3.0000    0.0000 O   0  0
    1.2990    0.7500    0.0000 C   0  0
    2.6003    1.4977    0.0000 O   0  0
    3.8990    0.7455    0.0000 C   0  0
    5.2003    1.4932    0.0000 C   0  0
    6.4990    0.7410    0.0000 C   0  0
    7.8003    1.4887    0.0000 C   0  0
    9.0990    0.7365    0.0000 C   0  0
   10.4003    1.4842    0.0000 N   0  0
   11.6994    0.7342    0.0000 C   0  0
   12.9984    1.4842    0.0000 C   0  0
   12.9984    2.9842    0.0000 C   0  0
   11.6994    3.7342    0.0000 C   0  0
   10.4004    2.9843    0.0000 C   0  0
    2.5965   -3.0004    0.0000 C   0  0
    3.8943   -3.7525    0.0000 C   0  0
    3.8888   -5.2533    0.0000 O   0  0
    2.5875   -5.9994    0.0000 C   0  0
  1  2  1  0
  2  3  1  0
  3  4  2  0
  4  5  1  0
  5  6  2  0
  6  7  1  0
  7  8  1  0
  8  9  1  0
  9 10  2  0
 10 11  1  0
 11 12  2  0
 12 13  1  0
 13 14  2  0
 14  9  1  0
 14 15  1  0
 15 16  2  0
 15 17  1  0
 17  7  2  0
 17 18  1  0
 18 19  1  0
 19 20  1  0
 20 21  1  0
 21 22  1  0
 22 23  1  0
 23 24  1  0
 24 25  1  0
 25 26  1  0
 26 27  1  0
 27 28  1  0
 28 29  1  0
 29 24  1  0
  6 30  1  0
 30 31  2  0
 31  3  1  0
 31 32  1  0
 32 33  1  0
M  END
> <assay_chembl_id>
CHEMBL4275399

> <assay_description>
Antiproliferative activity against human LNCAP cells after 3 days by WST-1 assay

> <document_journal>
Eur J Med Chem

> <molecule_chembl_id>
CHEMBL4286537

> <standard_value>
26500

> <IC50_uM>
26.5

> <Activity>
No

> <Canonical_Smiles>
COc1ccc(-c2oc3ccccc3c(=O)c2OCCCCCN2CCCCC2)cc1OC

$$$$

  SciTegic03142313312D

 24 26  0  0  0  0            999 V2000
    2.5951   -3.0031    0.0000 C   0  0
    2.5973   -1.5031    0.0000 O   0  0
    1.2990   -0.7500    0.0000 C   0  0
    1.2990    0.7500    0.0000 C   0  0
    0.0000    1.5000    0.0000 C   0  0
   -1.2990    0.7500    0.0000 C   0  0
   -2.5981    1.5000    0.0000 C   0  0
   -2.5981    3.0000    0.0000 O   0  0
   -3.8971    0.7500    0.0000 C   0  0
   -5.1962    1.5000    0.0000 O   0  0
   -3.8971   -0.7500    0.0000 C   0  0
   -5.1968   -1.5004    0.0000 C   0  0
   -6.4971   -0.7525    0.0000 C   0  0
   -7.7950   -1.5046    0.0000 C   0  0
   -7.7926   -3.0046    0.0000 C   0  0
   -9.0927   -3.7544    0.0000 O   0  0
  -10.3919   -3.0046    0.0000 C   0  0
   -6.4923   -3.7525    0.0000 C   0  0
   -6.4869   -5.2534    0.0000 O   0  0
   -5.1856   -5.9994    0.0000 C   0  0
   -5.1945   -3.0005    0.0000 C   0  0
   -2.5981   -1.5000    0.0000 O   0  0
   -1.2990   -0.7500    0.0000 C   0  0
    0.0000   -1.5000    0.0000 C   0  0
  1  2  1  0
  2  3  1  0
  3  4  2  0
  4  5  1  0
  5  6  2  0
  6  7  1  0
  7  8  2  0
  7  9  1  0
  9 10  1  0
  9 11  2  0
 11 12  1  0
 12 13  2  0
 13 14  1  0
 14 15  2  0
 15 16  1  0
 16 17  1  0
 15 18  1  0
 18 19  1  0
 19 20  1  0
 18 21  2  0
 21 12  1  0
 11 22  1  0
 22 23  1  0
 23  6  1  0
 23 24  2  0
 24  3  1  0
M  END
> <assay_chembl_id>
CHEMBL4275399

> <assay_description>
Antiproliferative activity against human LNCAP cells after 3 days by WST-1 assay

> <document_journal>
Eur J Med Chem

> <molecule_chembl_id>
CHEMBL77198

> <standard_value>
24500

> <IC50_uM>
24.5

> <Activity>
No

> <Canonical_Smiles>
COc1ccc2c(=O)c(O)c(-c3ccc(OC)c(OC)c3)oc2c1

$$$$

  SciTegic03142313312D

 26 28  0  0  0  0            999 V2000
    3.8926   -3.7566    0.0000 C   0  0
    2.5951   -3.0039    0.0000 C   0  0
    2.5973   -1.5031    0.0000 O   0  0
    1.2990   -0.7500    0.0000 C   0  0
    1.2990    0.7500    0.0000 C   0  0
    2.5987    1.5004    0.0000 C   0  0
    3.8991    0.7525    0.0000 C   0  0
    5.1969    1.5046    0.0000 C   0  0
    5.1945    3.0046    0.0000 C   0  0
    6.4946    3.7544    0.0000 O   0  0
    7.7938    3.0046    0.0000 C   0  0
    3.8943    3.7525    0.0000 C   0  0
    3.8888    5.2533    0.0000 O   0  0
    2.5875    5.9994    0.0000 C   0  0
    2.5964    3.0004    0.0000 C   0  0
    0.0000    1.5000    0.0000 O   0  0
   -1.2990    0.7500    0.0000 C   0  0
   -2.5981    1.5000    0.0000 C   0  0
   -3.8971    0.7500    0.0000 C   0  0
   -5.1984    1.4977    0.0000 O   0  0
   -6.4964    0.7459    0.0000 C   0  0
   -3.8971   -0.7500    0.0000 C   0  0
   -2.5981   -1.5000    0.0000 C   0  0
   -1.2990   -0.7500    0.0000 C   0  0
    0.0000   -1.5000    0.0000 C   0  0
    0.0000   -3.0000    0.0000 O   0  0
  1  2  1  0
  2  3  1  0
  3  4  1  0
  4  5  2  0
  5  6  1  0
  6  7  2  0
  7  8  1  0
  8  9  2  0
  9 10  1  0
 10 11  1  0
  9 12  1  0
 12 13  1  0
 13 14  1  0
 12 15  2  0
 15  6  1  0
  5 16  1  0
 16 17  1  0
 17 18  2  0
 18 19  1  0
 19 20  1  0
 20 21  1  0
 19 22  2  0
 22 23  1  0
 23 24  2  0
 24 17  1  0
 24 25  1  0
 25  4  1  0
 25 26  2  0
M  END
> <assay_chembl_id>
CHEMBL4275399

> <assay_description>
Antiproliferative activity against human LNCAP cells after 3 days by WST-1 assay

> <document_journal>
Eur J Med Chem

> <molecule_chembl_id>
CHEMBL4286590

> <standard_value>
30200

> <IC50_uM>
30.2

> <Activity>
No

> <Canonical_Smiles>
CCOc1c(-c2ccc(OC)c(OC)c2)oc2cc(OC)ccc2c1=O

$$$$

  SciTegic03142313312D

 31 33  0  0  0  0            999 V2000
    6.4833   -9.7648    0.0000 C   0  0
    6.4855   -8.2648    0.0000 C   0  0
    5.1873   -7.5117    0.0000 C   0  0
    5.1894   -6.0109    0.0000 C   0  0
    3.8912   -5.2578    0.0000 C   0  0
    3.8933   -3.7570    0.0000 C   0  0
    2.5951   -3.0039    0.0000 C   0  0
    2.5973   -1.5031    0.0000 O   0  0
    1.2990   -0.7500    0.0000 C   0  0
    1.2990    0.7500    0.0000 C   0  0
    2.5987    1.5004    0.0000 C   0  0
    3.8991    0.7525    0.0000 C   0  0
    5.1969    1.5046    0.0000 C   0  0
    5.1945    3.0046    0.0000 C   0  0
    6.4946    3.7544    0.0000 O   0  0
    7.7938    3.0046    0.0000 C   0  0
    3.8943    3.7525    0.0000 C   0  0
    3.8888    5.2533    0.0000 O   0  0
    2.5875    5.9994    0.0000 C   0  0
    2.5964    3.0004    0.0000 C   0  0
    0.0000    1.5000    0.0000 O   0  0
   -1.2990    0.7500    0.0000 C   0  0
   -2.5981    1.5000    0.0000 C   0  0
   -3.8971    0.7500    0.0000 C   0  0
   -5.1984    1.4977    0.0000 O   0  0
   -6.4964    0.7459    0.0000 C   0  0
   -3.8971   -0.7500    0.0000 C   0  0
   -2.5981   -1.5000    0.0000 C   0  0
   -1.2990   -0.7500    0.0000 C   0  0
    0.0000   -1.5000    0.0000 C   0  0
    0.0000   -3.0000    0.0000 O   0  0
  1  2  1  0
  2  3  1  0
  3  4  1  0
  4  5  1  0
  5  6  1  0
  6  7  1  0
  7  8  1  0
  8  9  1  0
  9 10  2  0
 10 11  1  0
 11 12  2  0
 12 13  1  0
 13 14  2  0
 14 15  1  0
 15 16  1  0
 14 17  1  0
 17 18  1  0
 18 19  1  0
 17 20  2  0
 20 11  1  0
 10 21  1  0
 21 22  1  0
 22 23  2  0
 23 24  1  0
 24 25  1  0
 25 26  1  0
 24 27  2  0
 27 28  1  0
 28 29  2  0
 29 22  1  0
 29 30  1  0
 30  9  1  0
 30 31  2  0
M  END
> <assay_chembl_id>
CHEMBL4275399

> <assay_description>
Antiproliferative activity against human LNCAP cells after 3 days by WST-1 assay

> <document_journal>
Eur J Med Chem

> <molecule_chembl_id>
CHEMBL4285556

> <standard_value>
22900

> <IC50_uM>
22.9

> <Activity>
No

> <Canonical_Smiles>
CCCCCCCOc1c(-c2ccc(OC)c(OC)c2)oc2cc(OC)ccc2c1=O

$$$$

  SciTegic03142313312D

 27 29  0  0  0  0            999 V2000
    2.5951   -3.0031    0.0000 C   0  0
    2.5973   -1.5031    0.0000 O   0  0
    1.2990   -0.7500    0.0000 C   0  0
    1.2990    0.7500    0.0000 C   0  0
    0.0000    1.5000    0.0000 C   0  0
   -1.2990    0.7500    0.0000 C   0  0
   -2.5981    1.5000    0.0000 C   0  0
   -2.5981    3.0000    0.0000 O   0  0
   -3.8971    0.7500    0.0000 C   0  0
   -5.1984    1.4977    0.0000 O   0  0
   -5.2025    2.9985    0.0000 C   0  0
   -6.5031    3.7459    0.0000 C   0  0
   -3.9052    3.7516    0.0000 C   0  0
   -3.8971   -0.7500    0.0000 C   0  0
   -5.1968   -1.5004    0.0000 C   0  0
   -6.4971   -0.7525    0.0000 C   0  0
   -7.7950   -1.5046    0.0000 C   0  0
   -7.7926   -3.0046    0.0000 C   0  0
   -9.0927   -3.7544    0.0000 O   0  0
  -10.3919   -3.0046    0.0000 C   0  0
   -6.4923   -3.7525    0.0000 C   0  0
   -6.4869   -5.2534    0.0000 O   0  0
   -5.1856   -5.9994    0.0000 C   0  0
   -5.1945   -3.0005    0.0000 C   0  0
   -2.5981   -1.5000    0.0000 O   0  0
   -1.2990   -0.7500    0.0000 C   0  0
    0.0000   -1.5000    0.0000 C   0  0
  1  2  1  0
  2  3  1  0
  3  4  2  0
  4  5  1  0
  5  6  2  0
  6  7  1  0
  7  8  2  0
  7  9  1  0
  9 10  1  0
 10 11  1  0
 11 12  1  0
 11 13  1  0
  9 14  2  0
 14 15  1  0
 15 16  2  0
 16 17  1  0
 17 18  2  0
 18 19  1  0
 19 20  1  0
 18 21  1  0
 21 22  1  0
 22 23  1  0
 21 24  2  0
 24 15  1  0
 14 25  1  0
 25 26  1  0
 26  6  1  0
 26 27  2  0
 27  3  1  0
M  END
> <assay_chembl_id>
CHEMBL4275399

> <assay_description>
Antiproliferative activity against human LNCAP cells after 3 days by WST-1 assay

> <document_journal>
Eur J Med Chem

> <molecule_chembl_id>
CHEMBL4290014

> <standard_value>
27100

> <IC50_uM>
27.1

> <Activity>
No

> <Canonical_Smiles>
COc1ccc2c(=O)c(OC(C)C)c(-c3ccc(OC)c(OC)c3)oc2c1

$$$$

  SciTegic03142313312D

 33 36  0  0  0  0            999 V2000
    2.5951   -3.0031    0.0000 C   0  0
    2.5973   -1.5031    0.0000 O   0  0
    1.2990   -0.7500    0.0000 C   0  0
    1.2990    0.7500    0.0000 C   0  0
    0.0000    1.5000    0.0000 C   0  0
   -1.2990    0.7500    0.0000 C   0  0
   -2.5981    1.5000    0.0000 C   0  0
   -2.5981    3.0000    0.0000 O   0  0
   -3.8971    0.7500    0.0000 C   0  0
   -5.1984    1.4977    0.0000 O   0  0
   -6.4971    0.7454    0.0000 C   0  0
   -7.7984    1.4932    0.0000 C   0  0
   -9.0971    0.7409    0.0000 C   0  0
  -10.3984    1.4886    0.0000 N   0  0
  -11.6975    0.7386    0.0000 C   0  0
  -12.9965    1.4886    0.0000 C   0  0
  -12.9966    2.9886    0.0000 O   0  0
  -11.6976    3.7386    0.0000 C   0  0
  -10.3985    2.9887    0.0000 C   0  0
   -3.8971   -0.7500    0.0000 C   0  0
   -5.1968   -1.5004    0.0000 C   0  0
   -6.4971   -0.7525    0.0000 C   0  0
   -7.7950   -1.5046    0.0000 C   0  0
   -7.7926   -3.0046    0.0000 C   0  0
   -9.0927   -3.7544    0.0000 O   0  0
  -10.3919   -3.0046    0.0000 C   0  0
   -6.4923   -3.7525    0.0000 C   0  0
   -6.4869   -5.2534    0.0000 O   0  0
   -5.1856   -5.9994    0.0000 C   0  0
   -5.1945   -3.0005    0.0000 C   0  0
   -2.5981   -1.5000    0.0000 O   0  0
   -1.2990   -0.7500    0.0000 C   0  0
    0.0000   -1.5000    0.0000 C   0  0
  1  2  1  0
  2  3  1  0
  3  4  2  0
  4  5  1  0
  5  6  2  0
  6  7  1  0
  7  8  2  0
  7  9  1  0
  9 10  1  0
 10 11  1  0
 11 12  1  0
 12 13  1  0
 13 14  1  0
 14 15  1  0
 15 16  1  0
 16 17  1  0
 17 18  1  0
 18 19  1  0
 19 14  1  0
  9 20  2  0
 20 21  1  0
 21 22  2  0
 22 23  1  0
 23 24  2  0
 24 25  1  0
 25 26  1  0
 24 27  1  0
 27 28  1  0
 28 29  1  0
 27 30  2  0
 30 21  1  0
 20 31  1  0
 31 32  1  0
 32  6  1  0
 32 33  2  0
 33  3  1  0
M  END
> <assay_chembl_id>
CHEMBL4275399

> <assay_description>
Antiproliferative activity against human LNCAP cells after 3 days by WST-1 assay

> <document_journal>
Eur J Med Chem

> <molecule_chembl_id>
CHEMBL4282676

> <standard_value>
32200

> <IC50_uM>
32.2

> <Activity>
No

> <Canonical_Smiles>
COc1ccc2c(=O)c(OCCCN3CCOCC3)c(-c3ccc(OC)c(OC)c3)oc2c1

$$$$

  SciTegic03142313312D

 33 36  0  0  0  0            999 V2000
    2.5951   -3.0031    0.0000 C   0  0
    2.5973   -1.5031    0.0000 O   0  0
    1.2990   -0.7500    0.0000 C   0  0
    1.2990    0.7500    0.0000 C   0  0
    0.0000    1.5000    0.0000 C   0  0
   -1.2990    0.7500    0.0000 C   0  0
   -2.5981    1.5000    0.0000 C   0  0
   -2.5981    3.0000    0.0000 O   0  0
   -3.8971    0.7500    0.0000 C   0  0
   -5.1984    1.4977    0.0000 O   0  0
   -6.4971    0.7454    0.0000 C   0  0
   -7.7984    1.4932    0.0000 C   0  0
   -9.0971    0.7409    0.0000 C   0  0
  -10.3984    1.4886    0.0000 N   0  0
  -11.6975    0.7386    0.0000 C   0  0
  -12.9965    1.4886    0.0000 C   0  0
  -12.9966    2.9886    0.0000 C   0  0
  -11.6976    3.7386    0.0000 C   0  0
  -10.3985    2.9887    0.0000 C   0  0
   -3.8971   -0.7500    0.0000 C   0  0
   -5.1968   -1.5004    0.0000 C   0  0
   -6.4971   -0.7525    0.0000 C   0  0
   -7.7950   -1.5046    0.0000 C   0  0
   -7.7926   -3.0046    0.0000 C   0  0
   -9.0927   -3.7544    0.0000 O   0  0
  -10.3919   -3.0046    0.0000 C   0  0
   -6.4923   -3.7525    0.0000 C   0  0
   -6.4869   -5.2534    0.0000 O   0  0
   -5.1856   -5.9994    0.0000 C   0  0
   -5.1945   -3.0005    0.0000 C   0  0
   -2.5981   -1.5000    0.0000 O   0  0
   -1.2990   -0.7500    0.0000 C   0  0
    0.0000   -1.5000    0.0000 C   0  0
  1  2  1  0
  2  3  1  0
  3  4  2  0
  4  5  1  0
  5  6  2  0
  6  7  1  0
  7  8  2  0
  7  9  1  0
  9 10  1  0
 10 11  1  0
 11 12  1  0
 12 13  1  0
 13 14  1  0
 14 15  1  0
 15 16  1  0
 16 17  1  0
 17 18  1  0
 18 19  1  0
 19 14  1  0
  9 20  2  0
 20 21  1  0
 21 22  2  0
 22 23  1  0
 23 24  2  0
 24 25  1  0
 25 26  1  0
 24 27  1  0
 27 28  1  0
 28 29  1  0
 27 30  2  0
 30 21  1  0
 20 31  1  0
 31 32  1  0
 32  6  1  0
 32 33  2  0
 33  3  1  0
M  END
> <assay_chembl_id>
CHEMBL4275399

> <assay_description>
Antiproliferative activity against human LNCAP cells after 3 days by WST-1 assay

> <document_journal>
Eur J Med Chem

> <molecule_chembl_id>
CHEMBL4293961

> <standard_value>
30700

> <IC50_uM>
30.7

> <Activity>
No

> <Canonical_Smiles>
COc1ccc2c(=O)c(OCCCN3CCCCC3)c(-c3ccc(OC)c(OC)c3)oc2c1

$$$$

  SciTegic03142313312D

 40 43  0  0  1  0            999 V2000
   -3.8109  -11.3760    0.0000 C   0  0
   -2.3446  -11.6924    0.0000 C   0  0
   -1.8859  -13.1205    0.0000 O   0  0
   -1.3373  -10.5798    0.0000 O   0  0
   -1.7962   -9.1509    0.0000 C   0  0
   -2.8035  -10.2623    0.0000 C   0  0
   -3.2625   -8.8345    0.0000 C   0  0
   -0.7889   -8.0383    0.0000 C   0  0
   -1.2479   -6.6094    0.0000 C   0  0
   -0.2405   -5.4968    0.0000 C   0  0
    1.2257   -5.8132    0.0000 O   0  0
   -0.6995   -4.0679    0.0000 C   0  0  2  0  0  0
   -2.1657   -3.7515    0.0000 C   0  0
    0.7668   -4.3843    0.0000 O   0  0
    0.3061   -2.9572    0.0000 C   0  0  1  0  0  0
    1.7979   -3.1140    0.0000 C   0  0  2  0  0  0
    2.5479   -4.4130    0.0000 O   0  0
    2.4080   -1.7436    0.0000 C   0  0
    1.2990   -0.7500    0.0000 C   0  0  1  0  0  0
    2.6686   -0.1382    0.0000 C   0  0
    1.2990    0.7500    0.0000 C   0  0  2  0  0  0
    2.5981    1.5000    0.0000 C   0  0
    2.5981    3.0000    0.0000 C   0  0
    1.2990    3.7500    0.0000 C   0  0
    0.0000    3.0000    0.0000 C   0  0  1  0  0  0
   -1.2991    3.7500    0.0000 C   0  0
   -1.2991    5.2500    0.0000 C   0  0  2  0  0  0
   -2.5981    6.0000    0.0000 O   0  0
    0.0000    6.0000    0.0000 C   0  0
   -0.0001    7.5000    0.0000 O   0  0
    1.2990    5.2500    0.0000 C   0  0
    2.5800    4.4696    0.0000 C   0  0
    1.2638    6.7496    0.0000 C   0  0
    0.0000    1.5000    0.0000 C   0  0  1  0  0  0
   -1.2991    2.2500    0.0000 C   0  0
   -1.2990    0.7500    0.0000 C   0  0
   -2.5981    1.5000    0.0000 O   0  0
   -1.2990   -0.7500    0.0000 C   0  0
    0.0000   -1.5000    0.0000 C   0  0  2  0  0  0
   -1.2146   -2.3802    0.0000 C   0  0
  1  2  1  0
  2  3  2  0
  2  4  1  0
  4  5  1  0
  5  6  1  0
  5  7  1  0
  5  8  1  0
  8  9  2  0
  9 10  1  0
 10 11  2  0
 10 12  1  0
 12 13  1  6
 12 14  1  0
 15 12  1  6
 15 16  1  0
 16 17  1  1
 16 18  1  0
 18 19  1  0
 19 20  1  1
 19 21  1  0
 21 22  1  1
 22 23  1  0
 23 24  2  0
 24 25  1  0
 25 26  1  6
 26 27  1  0
 27 28  1  6
 27 29  1  0
 29 30  2  0
 29 31  1  0
 31 24  1  0
 31 32  1  0
 31 33  1  0
 25 34  1  0
 34 21  1  0
 34 35  1  6
 34 36  1  0
 36 37  2  0
 36 38  1  0
 38 39  1  0
 39 15  1  0
 39 19  1  0
 39 40  1  6
M  END
> <assay_chembl_id>
CHEMBL4275776

> <assay_description>
Antiproliferative activity against human LNCAP cells

> <document_journal>
Eur J Med Chem

> <molecule_chembl_id>
CHEMBL508185

> <standard_value>
100

> <IC50_uM>
0.1

> <Activity>
Yes

> <Canonical_Smiles>
CC(=O)OC(C)(C)/C=C/C(=O)[C@](C)(O)[C@H]1[C@H](O)C[C@@]2(C)[C@@H]3CC=C4[C@@H](C[C@H](O)C(=O)C4(C)C)[C@]3(C)C(=O)C[C@]12C

$$$$

  SciTegic03142313312D

 37 41  0  0  0  0            999 V2000
    9.0097  -11.2051    0.0000 C   0  0
    8.2662   -9.9023    0.0000 C   0  0
    8.8832   -8.5351    0.0000 N   0  0
    7.7740   -7.5265    0.0000 C   0  0
    7.7816   -6.0265    0.0000 C   0  0
    9.0844   -5.2831    0.0000 F   0  0
    6.4863   -5.2700    0.0000 C   0  0
    5.1834   -6.0133    0.0000 C   0  0
    3.8864   -5.2585    0.0000 C   0  0
    3.8915   -3.7585    0.0000 N   0  0
    2.5951   -3.0039    0.0000 C   0  0
    2.5973   -1.5031    0.0000 N   0  0
    1.2990   -0.7500    0.0000 C   0  0
    1.2990    0.7500    0.0000 C   0  0
    0.0000    1.5000    0.0000 C   0  0
   -1.2990    0.7500    0.0000 C   0  0
   -1.2990   -0.7500    0.0000 C   0  0
    0.0000   -1.5000    0.0000 N   0  0
   -2.5981   -1.5000    0.0000 C   0  0
   -3.8971   -0.7500    0.0000 C   0  0
   -3.8971    0.7500    0.0000 N   0  0
   -5.1953    1.5031    0.0000 C   0  0
   -5.1932    3.0039    0.0000 C   0  0
   -6.4914    3.7570    0.0000 N   0  0
   -6.4893    5.2570    0.0000 C   0  0
   -7.7918    3.0092    0.0000 C   0  0
   -2.5981    1.5000    0.0000 C   0  0
    1.2935   -3.7495    0.0000 N   0  0
    1.2883   -5.2495    0.0000 C   0  0
    2.5847   -6.0040    0.0000 C   0  0
    2.5795   -7.5040    0.0000 F   0  0
    5.1760   -7.5134    0.0000 C   0  0
    6.4712   -8.2699    0.0000 C   0  0
    6.7753   -9.7380    0.0000 N   0  0
    5.7692  -10.8482    0.0000 C   0  0
    6.2273  -12.2765    0.0000 C   0  0
    4.3031  -10.5312    0.0000 C   0  0
  1  2  1  0
  2  3  2  0
  3  4  1  0
  4  5  2  0
  5  6  1  0
  5  7  1  0
  7  8  2  0
  8  9  1  0
  9 10  2  0
 10 11  1  0
 11 12  1  0
 12 13  1  0
 13 14  2  0
 14 15  1  0
 15 16  2  0
 16 17  1  0
 17 18  2  0
 18 13  1  0
 17 19  1  0
 19 20  1  0
 20 21  1  0
 21 22  1  0
 22 23  1  0
 23 24  1  0
 24 25  1  0
 24 26  1  0
 21 27  1  0
 27 16  1  0
 11 28  2  0
 28 29  1  0
 29 30  2  0
 30  9  1  0
 30 31  1  0
  8 32  1  0
 32 33  2  0
 33  4  1  0
 33 34  1  0
 34  2  1  0
 34 35  1  0
 35 36  1  0
 35 37  1  0
M  END
> <assay_chembl_id>
CHEMBL4305855

> <assay_description>
Antiproliferative activity against human LNCAP cells

> <document_journal>
Eur J Med Chem

> <molecule_chembl_id>
CHEMBL4448494

> <standard_value>
22.6

> <IC50_uM>
0.0226

> <Activity>
Yes

> <Canonical_Smiles>
Cc1nc2c(F)cc(-c3nc(Nc4ccc5c(n4)CCN(CCN(C)C)C5)ncc3F)cc2n1C(C)C

$$$$

  SciTegic03142313312D

 37 41  0  0  0  0            999 V2000
   -6.4810   -3.6830    0.0000 C   0  0
   -6.4959   -5.1829    0.0000 C   0  0
   -5.2041   -5.9470    0.0000 N   0  0
   -5.2168   -7.4469    0.0000 C   0  0
   -3.9242   -8.2079    0.0000 C   0  0
   -2.6188   -7.4691    0.0000 N   0  0
   -1.3239   -8.2279    0.0000 C   0  0
   -0.0189   -7.4867    0.0000 C   0  0
    1.2764   -8.2433    0.0000 C   0  0
    2.5792   -7.4998    0.0000 C   0  0
    2.5868   -5.9998    0.0000 C   0  0
    3.8888   -5.2533    0.0000 N   0  0
    3.8943   -3.7525    0.0000 C   0  0
    5.1945   -3.0045    0.0000 N   0  0
    5.1969   -1.5045    0.0000 C   0  0
    3.8991   -0.7525    0.0000 C   0  0
    3.9015    0.7475    0.0000 F   0  0
    2.5987   -1.5004    0.0000 C   0  0
    1.2990   -0.7500    0.0000 C   0  0
    1.2990    0.7500    0.0000 C   0  0
    0.0000    1.5000    0.0000 C   0  0
    0.0000    3.0000    0.0000 F   0  0
   -1.2990    0.7500    0.0000 C   0  0
   -2.7248    1.2135    0.0000 N   0  0
   -3.6065    0.0000    0.0000 C   0  0
   -5.1065    0.0000    0.0000 C   0  0
   -2.7248   -1.2135    0.0000 N   0  0
   -3.1904   -2.6376    0.0000 C   0  0
   -4.6580   -2.9476    0.0000 C   0  0
   -2.1885   -3.7539    0.0000 C   0  0
   -1.2990   -0.7500    0.0000 C   0  0
    0.0000   -1.5000    0.0000 C   0  0
    2.5965   -3.0004    0.0000 N   0  0
    1.2915   -5.2433    0.0000 N   0  0
   -0.0113   -5.9867    0.0000 C   0  0
   -2.6061   -5.9691    0.0000 C   0  0
   -3.8987   -5.2081    0.0000 C   0  0
  1  2  1  0
  2  3  1  0
  3  4  1  0
  4  5  1  0
  5  6  1  0
  6  7  1  0
  7  8  1  0
  8  9  2  0
  9 10  1  0
 10 11  2  0
 11 12  1  0
 12 13  1  0
 13 14  2  0
 14 15  1  0
 15 16  2  0
 16 17  1  0
 16 18  1  0
 18 19  1  0
 19 20  2  0
 20 21  1  0
 21 22  1  0
 21 23  2  0
 23 24  1  0
 24 25  2  0
 25 26  1  0
 25 27  1  0
 27 28  1  0
 28 29  1  0
 28 30  1  0
 27 31  1  0
 31 23  1  0
 31 32  2  0
 32 19  1  0
 18 33  2  0
 33 13  1  0
 11 34  1  0
 34 35  2  0
 35  8  1  0
  6 36  1  0
 36 37  1  0
 37  3  1  0
M  END
> <assay_chembl_id>
CHEMBL4305855

> <assay_description>
Antiproliferative activity against human LNCAP cells

> <document_journal>
Eur J Med Chem

> <molecule_chembl_id>
CHEMBL3301610

> <standard_value>
84

> <IC50_uM>
0.084

> <Activity>
Yes

> <Canonical_Smiles>
CCN1CCN(Cc2ccc(Nc3ncc(F)c(-c4cc(F)c5nc(C)n(C(C)C)c5c4)n3)nc2)CC1

$$$$

  SciTegic03142313312D

 39 45  0  0  1  0            999 V2000
    2.5951   -3.0031    0.0000 C   0  0
    2.5973   -1.5031    0.0000 O   0  0
    1.2990   -0.7500    0.0000 C   0  0
    1.2990    0.7500    0.0000 C   0  0
    0.0000    1.5000    0.0000 C   0  0
   -1.2990    0.7500    0.0000 C   0  0
   -2.5981    1.5000    0.0000 C   0  0
   -1.2990   -0.7500    0.0000 C   0  0
    0.0000   -1.5000    0.0000 C   0  0
   -0.3114   -2.9665    0.0000 C   0  0
    0.6924   -4.0811    0.0000 O   0  0
   -1.8032   -3.1233    0.0000 O   0  0
   -2.4133   -1.7530    0.0000 C   0  0
    0.0000    3.0000    0.0000 O   0  0
    1.2990    3.7500    0.0000 C   0  0  1  0  0  0
    0.0000    4.5000    0.0000 C   0  0
    1.2990    5.2500    0.0000 C   0  0
    2.5980    6.0000    0.0000 C   0  0  2  0  0  0
    1.6685    4.8228    0.0000 O   0  0
    2.0876    4.2866    0.0000 O   0  0
    3.2210    3.3042    0.0000 C   0  0
    4.8483    4.0365    0.0000 C   0  0  2  0  0  0
    5.3887    2.6372    0.0000 C   0  0
    6.2749    4.5000    0.0000 O   0  0
    6.2749    6.0000    0.0000 C   0  0  1  0  0  0
    7.1119    4.7364    0.0000 O   0  0
    8.6103    4.8049    0.0000 C   0  0
    6.6095    4.4579    0.0000 C   0  0
    5.5155    3.4317    0.0000 C   0  0  1  0  0  0
    6.4355    2.2451    0.0000 O   0  0
    7.9225    2.4484    0.0000 C   0  0
    8.4892    3.8373    0.0000 C   0  0
    8.8423    1.2635    0.0000 O   0  0
    3.8971    3.7500    0.0000 C   0  0  2  0  0  0
    4.1430    2.2703    0.0000 C   0  0
    2.5981    3.0000    0.0000 C   0  0  1  0  0  0
    2.5981    1.5000    0.0000 C   0  0
    3.8971    5.2500    0.0000 C   0  0  1  0  0  0
    4.8483    6.4636    0.0000 O   0  0
  1  2  1  0
  2  3  1  0
  3  4  2  0
  4  5  1  0
  5  6  2  0
  6  7  1  0
  6  8  1  0
  8  9  2  0
  9  3  1  0
  9 10  1  0
 10 11  2  0
 10 12  1  0
 12 13  1  0
 13  8  1  0
  5 14  1  0
 14 15  1  0
 15 16  1  6
 15 17  1  0
 17 18  1  0
 18 19  1  6
 18 20  1  0
 20 21  1  0
 21 22  1  0
 22 23  1  6
 22 24  1  0
 24 25  1  0
 25 26  1  1
 26 27  1  0
 25 28  1  0
 28 29  1  0
 29 30  1  1
 30 31  1  0
 31 32  1  0
 31 33  2  0
 29 34  1  0
 34 35  1  1
 34 36  1  0
 36 15  1  0
 36 37  1  1
 37  4  1  0
 34 38  1  0
 38 22  1  0
 38 18  1  0
 38 39  1  6
 39 25  1  0
M  END
> <assay_chembl_id>
CHEMBL4308390

> <assay_description>
Cytotoxicity against human LNCAP cells assessed as reduction in cell viability incubated for 48 hrs by xCELLigence RTCA analysis

> <document_journal>
Bioorg Med Chem Lett

> <molecule_chembl_id>
CHEMBL4454826

> <standard_value>
20000

> <IC50_uM>
20

> <Activity>
No

> <Canonical_Smiles>
COc1c2c(c(C)c3c1C(=O)OC3)O[C@@]1(C)C[C@]3(O)OC[C@]4(C)O[C@@]5(OC)C[C@@H](OC(C)=O)[C@](C)([C@H]1C2)[C@]43O5

$$$$

  SciTegic03142313312D

 35 41  0  0  1  0            999 V2000
    2.5951   -3.0031    0.0000 C   0  0
    2.5973   -1.5031    0.0000 O   0  0
    1.2990   -0.7500    0.0000 C   0  0
    1.2990    0.7500    0.0000 C   0  0
    0.0000    1.5000    0.0000 C   0  0
   -1.2990    0.7500    0.0000 C   0  0
   -2.5981    1.5000    0.0000 C   0  0
   -1.2990   -0.7500    0.0000 C   0  0
    0.0000   -1.5000    0.0000 C   0  0
   -0.3114   -2.9665    0.0000 C   0  0
    0.6924   -4.0811    0.0000 O   0  0
   -1.8032   -3.1233    0.0000 O   0  0
   -2.4133   -1.7530    0.0000 C   0  0
    0.0000    3.0000    0.0000 O   0  0
    1.2990    3.7500    0.0000 C   0  0  1  0  0  0
    0.0000    4.5000    0.0000 C   0  0
    1.2990    5.2500    0.0000 C   0  0
    2.5980    6.0000    0.0000 C   0  0  2  0  0  0
    1.6685    4.8228    0.0000 O   0  0
    2.0876    4.2866    0.0000 O   0  0
    3.2210    3.3042    0.0000 C   0  0
    4.8483    4.0365    0.0000 C   0  0  2  0  0  0
    5.3887    2.6372    0.0000 C   0  0
    6.2749    4.5000    0.0000 O   0  0
    6.2749    6.0000    0.0000 C   0  0  1  0  0  0
    7.1119    4.7364    0.0000 O   0  0
    8.6103    4.8049    0.0000 C   0  0
    6.6095    4.4579    0.0000 C   0  0
    5.5155    3.4317    0.0000 C   0  0
    3.8971    3.7500    0.0000 C   0  0  2  0  0  0
    4.1430    2.2703    0.0000 C   0  0
    2.5981    3.0000    0.0000 C   0  0  1  0  0  0
    2.5981    1.5000    0.0000 C   0  0
    3.8971    5.2500    0.0000 C   0  0  1  0  0  0
    4.8483    6.4636    0.0000 O   0  0
  1  2  1  0
  2  3  1  0
  3  4  2  0
  4  5  1  0
  5  6  2  0
  6  7  1  0
  6  8  1  0
  8  9  2  0
  9  3  1  0
  9 10  1  0
 10 11  2  0
 10 12  1  0
 12 13  1  0
 13  8  1  0
  5 14  1  0
 14 15  1  0
 15 16  1  6
 15 17  1  0
 17 18  1  0
 18 19  1  6
 18 20  1  0
 20 21  1  0
 21 22  1  0
 22 23  1  6
 22 24  1  0
 24 25  1  0
 25 26  1  1
 26 27  1  0
 25 28  1  0
 28 29  1  0
 29 30  1  0
 30 31  1  1
 30 32  1  0
 32 15  1  0
 32 33  1  1
 33  4  1  0
 30 34  1  0
 34 22  1  0
 34 18  1  0
 34 35  1  6
 35 25  1  0
M  END
> <assay_chembl_id>
CHEMBL4308390

> <assay_description>
Cytotoxicity against human LNCAP cells assessed as reduction in cell viability incubated for 48 hrs by xCELLigence RTCA analysis

> <document_journal>
Bioorg Med Chem Lett

> <molecule_chembl_id>
CHEMBL4520516

> <standard_value>
27000

> <IC50_uM>
27

> <Activity>
No

> <Canonical_Smiles>
COc1c2c(c(C)c3c1C(=O)OC3)O[C@@]1(C)C[C@]3(O)OC[C@]4(C)O[C@@]5(OC)CC[C@](C)([C@H]1C2)[C@]43O5

$$$$

  SciTegic03142313312D

 29 32  0  0  0  0            999 V2000
    2.5981   -1.5000    0.0000 C   0  0
    1.2990   -0.7500    0.0000 C   0  0
    1.2990    0.7500    0.0000 C   0  0
    0.0000    1.5000    0.0000 C   0  0
   -1.2990    0.7500    0.0000 C   0  0
   -1.2990   -0.7500    0.0000 C   0  0
    0.0000   -1.5000    0.0000 C   0  0
   -0.0031   -3.0008    0.0000 O   0  0
   -1.3039   -3.7494    0.0000 C   0  0
   -1.3070   -5.2502    0.0000 C   0  0
   -2.6078   -5.9988    0.0000 C   0  0
   -2.6131   -7.4988    0.0000 C   0  0
   -3.9147   -8.2443    0.0000 C   0  0
   -5.2111   -7.4898    0.0000 C   0  0
   -6.5150   -8.2331    0.0000 C   0  0
   -7.8111   -7.4763    0.0000 N   0  0
   -9.1154   -8.2173    0.0000 C   0  0
  -10.4092   -7.4583    0.0000 C   0  0
  -10.3988   -5.9583    0.0000 N   0  0
  -11.6933   -5.1990    0.0000 C   0  0
  -12.9987   -5.9379    0.0000 C   0  0
  -14.2914   -5.1768    0.0000 C   0  0
  -14.2786   -3.6769    0.0000 C   0  0
  -12.9732   -2.9380    0.0000 C   0  0
  -11.6806   -3.6990    0.0000 C   0  0
   -9.0946   -5.2173    0.0000 C   0  0
   -7.8008   -5.9763    0.0000 C   0  0
   -5.2060   -5.9898    0.0000 C   0  0
   -3.9043   -5.2443    0.0000 C   0  0
  1  2  1  0
  2  3  2  0
  3  4  1  0
  4  5  2  0
  5  6  1  0
  6  7  2  0
  7  2  1  0
  7  8  1  0
  8  9  1  0
  9 10  1  0
 10 11  1  0
 11 12  2  0
 12 13  1  0
 13 14  2  0
 14 15  1  0
 15 16  1  0
 16 17  1  0
 17 18  1  0
 18 19  1  0
 19 20  1  0
 20 21  2  0
 21 22  1  0
 22 23  2  0
 23 24  1  0
 24 25  2  0
 25 20  1  0
 19 26  1  0
 26 27  1  0
 27 16  1  0
 14 28  1  0
 28 29  2  0
 29 11  1  0
M  END
> <assay_chembl_id>
CHEMBL4311435

> <assay_description>
Antiproliferative activity against human LNCAP cells after 24 hrs by CCK-8 assay

> <document_journal>
Bioorg Med Chem

> <molecule_chembl_id>
CHEMBL4578449

> <standard_value>
34870

> <IC50_uM>
34.87

> <Activity>
No

> <RemovedSalts>
HCl
HCl

> <Canonical_Smiles>
Cc1ccccc1OCCc1ccc(CN2CCN(c3ccccc3)CC2)cc1.Cl.Cl

$$$$

  SciTegic03142313312D

 29 32  0  0  0  0            999 V2000
    2.5981   -1.5000    0.0000 Br  0  0
    1.2990   -0.7500    0.0000 C   0  0
    1.2990    0.7500    0.0000 C   0  0
    0.0000    1.5000    0.0000 C   0  0
   -1.2990    0.7500    0.0000 C   0  0
   -1.2990   -0.7500    0.0000 C   0  0
    0.0000   -1.5000    0.0000 C   0  0
   -0.0031   -3.0008    0.0000 O   0  0
   -1.3039   -3.7494    0.0000 C   0  0
   -1.3070   -5.2502    0.0000 C   0  0
   -2.6078   -5.9988    0.0000 C   0  0
   -2.6131   -7.4988    0.0000 C   0  0
   -3.9147   -8.2443    0.0000 C   0  0
   -5.2111   -7.4898    0.0000 C   0  0
   -6.5150   -8.2331    0.0000 C   0  0
   -7.8111   -7.4763    0.0000 N   0  0
   -9.1154   -8.2173    0.0000 C   0  0
  -10.4092   -7.4583    0.0000 C   0  0
  -10.3988   -5.9583    0.0000 N   0  0
  -11.6933   -5.1990    0.0000 C   0  0
  -12.9987   -5.9379    0.0000 C   0  0
  -14.2914   -5.1768    0.0000 C   0  0
  -14.2786   -3.6769    0.0000 C   0  0
  -12.9732   -2.9380    0.0000 C   0  0
  -11.6806   -3.6990    0.0000 C   0  0
   -9.0946   -5.2173    0.0000 C   0  0
   -7.8008   -5.9763    0.0000 C   0  0
   -5.2060   -5.9898    0.0000 C   0  0
   -3.9043   -5.2443    0.0000 C   0  0
  1  2  1  0
  2  3  2  0
  3  4  1  0
  4  5  2  0
  5  6  1  0
  6  7  2  0
  7  2  1  0
  7  8  1  0
  8  9  1  0
  9 10  1  0
 10 11  1  0
 11 12  2  0
 12 13  1  0
 13 14  2  0
 14 15  1  0
 15 16  1  0
 16 17  1  0
 17 18  1  0
 18 19  1  0
 19 20  1  0
 20 21  2  0
 21 22  1  0
 22 23  2  0
 23 24  1  0
 24 25  2  0
 25 20  1  0
 19 26  1  0
 26 27  1  0
 27 16  1  0
 14 28  1  0
 28 29  2  0
 29 11  1  0
M  END
> <assay_chembl_id>
CHEMBL4311435

> <assay_description>
Antiproliferative activity against human LNCAP cells after 24 hrs by CCK-8 assay

> <document_journal>
Bioorg Med Chem

> <molecule_chembl_id>
CHEMBL4464517

> <standard_value>
41870

> <IC50_uM>
41.87

> <Activity>
No

> <RemovedSalts>
HCl
HCl

> <Canonical_Smiles>
Brc1ccccc1OCCc1ccc(CN2CCN(c3ccccc3)CC2)cc1.Cl.Cl

$$$$

  SciTegic03142313312D

 32 35  0  0  0  0            999 V2000
    3.8983   -0.7512    0.0000 F   0  0
    2.5988   -1.5004    0.0000 C   0  0
    2.5983   -3.0004    0.0000 F   0  0
    3.8975   -2.2510    0.0000 F   0  0
    1.2990   -0.7500    0.0000 C   0  0
    1.2990    0.7500    0.0000 C   0  0
    0.0000    1.5000    0.0000 C   0  0
   -1.2990    0.7500    0.0000 C   0  0
   -1.2990   -0.7500    0.0000 C   0  0
    0.0000   -1.5000    0.0000 C   0  0
   -0.0031   -3.0008    0.0000 O   0  0
   -1.3039   -3.7494    0.0000 C   0  0
   -1.3070   -5.2502    0.0000 C   0  0
   -2.6078   -5.9988    0.0000 C   0  0
   -2.6131   -7.4988    0.0000 C   0  0
   -3.9147   -8.2443    0.0000 C   0  0
   -5.2111   -7.4898    0.0000 C   0  0
   -6.5150   -8.2331    0.0000 C   0  0
   -7.8111   -7.4763    0.0000 N   0  0
   -9.1154   -8.2173    0.0000 C   0  0
  -10.4092   -7.4583    0.0000 C   0  0
  -10.3988   -5.9583    0.0000 N   0  0
  -11.6933   -5.1990    0.0000 C   0  0
  -12.9987   -5.9379    0.0000 C   0  0
  -14.2914   -5.1768    0.0000 C   0  0
  -14.2786   -3.6769    0.0000 C   0  0
  -12.9732   -2.9380    0.0000 C   0  0
  -11.6806   -3.6990    0.0000 C   0  0
   -9.0946   -5.2173    0.0000 C   0  0
   -7.8008   -5.9763    0.0000 C   0  0
   -5.2060   -5.9898    0.0000 C   0  0
   -3.9043   -5.2443    0.0000 C   0  0
  1  2  1  0
  2  3  1  0
  2  4  1  0
  2  5  1  0
  5  6  2  0
  6  7  1  0
  7  8  2  0
  8  9  1  0
  9 10  2  0
 10  5  1  0
 10 11  1  0
 11 12  1  0
 12 13  1  0
 13 14  1  0
 14 15  2  0
 15 16  1  0
 16 17  2  0
 17 18  1  0
 18 19  1  0
 19 20  1  0
 20 21  1  0
 21 22  1  0
 22 23  1  0
 23 24  2  0
 24 25  1  0
 25 26  2  0
 26 27  1  0
 27 28  2  0
 28 23  1  0
 22 29  1  0
 29 30  1  0
 30 19  1  0
 17 31  1  0
 31 32  2  0
 32 14  1  0
M  END
> <assay_chembl_id>
CHEMBL4311435

> <assay_description>
Antiproliferative activity against human LNCAP cells after 24 hrs by CCK-8 assay

> <document_journal>
Bioorg Med Chem

> <molecule_chembl_id>
CHEMBL4529315

> <standard_value>
32160

> <IC50_uM>
32.16

> <Activity>
No

> <RemovedSalts>
HCl
HCl

> <Canonical_Smiles>
Cl.Cl.FC(F)(F)c1ccccc1OCCc1ccc(CN2CCN(c3ccccc3)CC2)cc1

$$$$

  SciTegic03142313312D

 30 33  0  0  0  0            999 V2000
    3.8978   -2.2504    0.0000 N   0  0
    2.5988   -1.5004    0.0000 C   0  0
    1.2990   -0.7500    0.0000 C   0  0
    1.2990    0.7500    0.0000 C   0  0
    0.0000    1.5000    0.0000 C   0  0
   -1.2990    0.7500    0.0000 C   0  0
   -2.6003    1.4977    0.0000 O   0  0
   -3.8990    0.7455    0.0000 C   0  0
   -5.2003    1.4932    0.0000 C   0  0
   -6.4990    0.7409    0.0000 C   0  0
   -7.8007    1.4864    0.0000 C   0  0
   -9.0971    0.7319    0.0000 C   0  0
   -9.0919   -0.7681    0.0000 C   0  0
  -10.3875   -1.5257    0.0000 C   0  0
  -10.3802   -3.0265    0.0000 N   0  0
  -11.6740   -3.7856    0.0000 C   0  0
  -11.6636   -5.2856    0.0000 C   0  0
  -10.3594   -6.0265    0.0000 N   0  0
  -10.3490   -7.5273    0.0000 C   0  0
  -11.6416   -8.2884    0.0000 C   0  0
  -11.6289   -9.7883    0.0000 C   0  0
  -10.3235  -10.5273    0.0000 C   0  0
   -9.0309   -9.7662    0.0000 C   0  0
   -9.0437   -8.2663    0.0000 C   0  0
   -9.0656   -5.2676    0.0000 C   0  0
   -9.0760   -3.7676    0.0000 C   0  0
   -7.7903   -1.5136    0.0000 C   0  0
   -6.4939   -0.7591    0.0000 C   0  0
   -1.2990   -0.7500    0.0000 C   0  0
    0.0000   -1.5000    0.0000 C   0  0
  1  2  3  0
  2  3  1  0
  3  4  2  0
  4  5  1  0
  5  6  2  0
  6  7  1  0
  7  8  1  0
  8  9  1  0
  9 10  1  0
 10 11  2  0
 11 12  1  0
 12 13  2  0
 13 14  1  0
 14 15  1  0
 15 16  1  0
 16 17  1  0
 17 18  1  0
 18 19  1  0
 19 20  2  0
 20 21  1  0
 21 22  2  0
 22 23  1  0
 23 24  2  0
 24 19  1  0
 18 25  1  0
 25 26  1  0
 26 15  1  0
 13 27  1  0
 27 28  2  0
 28 10  1  0
  6 29  1  0
 29 30  2  0
 30  3  1  0
M  END
> <assay_chembl_id>
CHEMBL4311435

> <assay_description>
Antiproliferative activity against human LNCAP cells after 24 hrs by CCK-8 assay

> <document_journal>
Bioorg Med Chem

> <molecule_chembl_id>
CHEMBL4476484

> <standard_value>
43580

> <IC50_uM>
43.58

> <Activity>
No

> <RemovedSalts>
HCl
HCl

> <Canonical_Smiles>
Cl.Cl.N#Cc1ccc(OCCc2ccc(CN3CCN(c4ccccc4)CC3)cc2)cc1

$$$$

  SciTegic03142313312D

 78 86  0  0  1  0            999 V2000
   -3.8359   -8.8354    0.0000 C   0  0
   -2.4042   -8.3879    0.0000 C   0  0
   -1.2006   -9.2831    0.0000 C   0  0
    0.0020   -8.4080    0.0000 C   0  0
    1.4251   -8.8848    0.0000 C   0  0  2  0  0  0
    2.5501   -7.8915    0.0000 C   0  0
    2.2521   -6.4214    0.0000 O   0  0
    3.9707   -8.3673    0.0000 N   0  0
    4.4293   -9.7955    0.0000 C   0  0
    5.9293   -9.8007    0.0000 C   0  0  2  0  0  0
    6.8068  -11.0173    0.0000 O   0  0
    6.3978   -8.3758    0.0000 C   0  0
    5.1873   -7.5117    0.0000 C   0  0  1  0  0  0
    5.1894   -6.0109    0.0000 C   0  0
    6.4897   -5.2632    0.0000 O   0  0
    3.8912   -5.2578    0.0000 N   0  0
    3.8933   -3.7570    0.0000 C   0  0  1  0  0  0
    2.5951   -3.0039    0.0000 C   0  0
    2.5973   -1.5031    0.0000 C   0  0
    3.8976   -0.7553    0.0000 O   0  0
    1.2990   -0.7500    0.0000 N   0  0
    1.2990    0.7500    0.0000 C   0  0
    0.0000    1.5000    0.0000 C   0  0
   -1.2990    0.7500    0.0000 C   0  0
   -2.5987    1.5004    0.0000 N   0  0
   -2.6012    3.0004    0.0000 C   0  0
   -3.9015    3.7484    0.0000 C   0  0
   -5.1993    2.9963    0.0000 C   0  0
   -6.5002    3.7446    0.0000 C   0  0
   -7.8012    4.4930    0.0000 C   0  0
   -9.1021    5.2413    0.0000 C   0  0
  -10.4000    4.4892    0.0000 C   0  0
  -11.7002    5.2372    0.0000 C   0  0
  -11.7026    6.7372    0.0000 C   0  0
  -13.0020    7.4882    0.0000 C   0  0
  -14.3012    6.7384    0.0000 O   0  0
  -13.0022    8.9890    0.0000 N   0  0
  -14.3016    9.7400    0.0000 C   0  0  1  0  0  0
  -14.6474   11.1625    0.0000 C   0  0
  -13.1476   11.1424    0.0000 C   0  0
  -15.3863   12.4679    0.0000 C   0  0
  -16.0957   10.7720    0.0000 C   0  0  2  0  0  0
  -17.3898   11.5200    0.0000 O   0  0
  -17.3900   13.0208    0.0000 C   0  0
  -18.6876   13.7734    0.0000 C   0  0
  -18.6848   15.2734    0.0000 C   0  0
  -17.3843   16.0209    0.0000 C   0  0
  -17.3815   17.5217    0.0000 C   0  0
  -17.3786   19.0217    0.0000 N   0  0
  -16.0867   15.2684    0.0000 C   0  0
  -14.7862   16.0160    0.0000 Cl  0  0
  -16.0895   13.7684    0.0000 C   0  0
  -15.7051    9.3237    0.0000 C   0  0
  -14.9336    8.0373    0.0000 C   0  0
  -17.2050    9.3061    0.0000 C   0  0
  -10.4047    7.4892    0.0000 C   0  0
   -9.1045    6.7413    0.0000 C   0  0
   -5.1969    1.4963    0.0000 C   0  0
   -3.8967    0.7484    0.0000 C   0  0
   -1.2990   -0.7500    0.0000 C   0  0
    0.0000   -1.5000    0.0000 C   0  0
    5.1943   -3.0089    0.0000 C   0  0
    5.1991   -1.5088    0.0000 C   0  0
    6.5004   -0.7628    0.0000 C   0  0
    7.7971   -1.5169    0.0000 C   0  0
    9.0992   -0.7705    0.0000 C   0  0
   10.4476   -1.3979    0.0000 S   0  0
   11.4566   -0.2879    0.0000 C   0  0
   10.7126    1.0147    0.0000 N   0  0
    9.2440    0.7097    0.0000 C   0  0
    8.1280    1.7120    0.0000 C   0  0
    7.7925   -3.0169    0.0000 C   0  0
    6.4911   -3.7628    0.0000 C   0  0
    1.7202  -10.3563    0.0000 C   0  0
    0.5947  -11.3478    0.0000 C   0  0
    3.1415  -10.8357    0.0000 C   0  0
   -0.4249   -6.9833    0.0000 O   0  0
   -1.9248   -6.9666    0.0000 N   0  0
  1  2  1  0
  2  3  1  0
  3  4  2  0
  5  4  1  6
  5  6  1  0
  6  7  2  0
  6  8  1  0
  8  9  1  0
  9 10  1  0
 10 11  1  1
 10 12  1  0
 12 13  1  0
 13  8  1  0
 13 14  1  6
 14 15  2  0
 14 16  1  0
 17 16  1  1
 17 18  1  0
 18 19  1  0
 19 20  2  0
 19 21  1  0
 21 22  1  0
 22 23  1  0
 23 24  1  0
 24 25  1  0
 25 26  1  0
 26 27  1  0
 27 28  1  0
 28 29  1  0
 29 30  3  0
 30 31  1  0
 31 32  2  0
 32 33  1  0
 33 34  2  0
 34 35  1  0
 35 36  2  0
 35 37  1  0
 38 37  1  6
 38 39  1  0
 39 40  1  0
 39 41  1  0
 39 42  1  0
 42 43  1  1
 43 44  1  0
 44 45  2  0
 45 46  1  0
 46 47  2  0
 47 48  1  0
 48 49  3  0
 47 50  1  0
 50 51  1  0
 50 52  2  0
 52 44  1  0
 42 53  1  0
 53 38  1  0
 53 54  1  0
 53 55  1  0
 34 56  1  0
 56 57  2  0
 57 31  1  0
 28 58  1  0
 58 59  1  0
 59 25  1  0
 24 60  1  0
 60 61  1  0
 61 21  1  0
 17 62  1  0
 62 63  2  0
 63 64  1  0
 64 65  2  0
 65 66  1  0
 66 67  1  0
 67 68  1  0
 68 69  2  0
 69 70  1  0
 70 66  2  0
 70 71  1  0
 65 72  1  0
 72 73  2  0
 73 62  1  0
  5 74  1  0
 74 75  1  0
 74 76  1  0
  4 77  1  0
 77 78  1  0
 78  2  2  0
M  END
> <assay_chembl_id>
CHEMBL4325013

> <assay_description>
Antiproliferative activity against AR-positive human LNCAP cells incubated for 7 days in presence of AR agonist, R1881 by WST-8 assay

> <document_journal>
J Med Chem

> <molecule_chembl_id>
CHEMBL4528598

> <standard_value>
2

> <IC50_uM>
0.002

> <Activity>
Yes

> <Canonical_Smiles>
Cc1cc([C@H](C(=O)N2C[C@H](O)C[C@H]2C(=O)N[C@@H](CC(=O)N2CCC(N3CCC(C#Cc4ccc(C(=O)N[C@H]5C(C)(C)[C@H](Oc6ccc(C#N)c(Cl)c6)C5(C)C)cc4)CC3)CC2)c2ccc(-c3scnc3C)cc2)C(C)C)on1

$$$$

  SciTegic03142313312D

 66 72  0  0  1  0            999 V2000
   -3.8359   -8.8354    0.0000 C   0  0
   -2.4042   -8.3879    0.0000 C   0  0
   -1.2006   -9.2831    0.0000 C   0  0
    0.0020   -8.4080    0.0000 C   0  0
    1.4251   -8.8848    0.0000 C   0  0  2  0  0  0
    2.5501   -7.8915    0.0000 C   0  0
    2.2521   -6.4214    0.0000 O   0  0
    3.9707   -8.3673    0.0000 N   0  0
    4.4293   -9.7955    0.0000 C   0  0
    5.9293   -9.8007    0.0000 C   0  0  2  0  0  0
    6.8068  -11.0173    0.0000 O   0  0
    6.3978   -8.3758    0.0000 C   0  0
    5.1873   -7.5117    0.0000 C   0  0  1  0  0  0
    5.1894   -6.0109    0.0000 C   0  0
    6.4897   -5.2632    0.0000 O   0  0
    3.8912   -5.2578    0.0000 N   0  0
    3.8933   -3.7570    0.0000 C   0  0  1  0  0  0
    2.5951   -3.0039    0.0000 C   0  0
    2.5973   -1.5031    0.0000 C   0  0
    3.8976   -0.7553    0.0000 O   0  0
    1.2990   -0.7500    0.0000 N   0  0
    1.2990    0.7500    0.0000 C   0  0
    0.0000    1.5000    0.0000 C   0  0
   -1.2990    0.7500    0.0000 C   0  0
   -2.5988    1.5004    0.0000 C   0  0
   -3.8986    2.2508    0.0000 C   0  0
   -5.1983    3.0012    0.0000 C   0  0
   -6.4974    2.2512    0.0000 C   0  0
   -7.7964    3.0012    0.0000 C   0  0
   -7.7964    4.5012    0.0000 C   0  0
   -9.0946    5.2543    0.0000 C   0  0
  -10.3949    4.5066    0.0000 O   0  0
   -9.0925    6.7551    0.0000 N   0  0
  -10.3907    7.5082    0.0000 C   0  0  1  0  0  0
  -10.7342    8.9312    0.0000 C   0  0
   -9.2344    8.9087    0.0000 C   0  0
  -11.4710   10.2378    0.0000 C   0  0
  -12.1831    8.5430    0.0000 C   0  0  2  0  0  0
  -13.4760    9.2930    0.0000 O   0  0
  -13.4738   10.7939    0.0000 C   0  0
  -14.7702   11.5485    0.0000 C   0  0
  -14.7650   13.0485    0.0000 C   0  0
  -13.4634   13.7939    0.0000 C   0  0
  -13.4581   15.2948    0.0000 C   0  0
  -13.4529   16.7947    0.0000 N   0  0
  -12.1669   13.0394    0.0000 C   0  0
  -10.8653   13.7849    0.0000 Cl  0  0
  -12.1722   11.5394    0.0000 C   0  0
  -11.7948    7.0941    0.0000 C   0  0
  -11.0253    5.8065    0.0000 C   0  0
  -13.2947    7.0789    0.0000 C   0  0
   -6.4974    5.2512    0.0000 C   0  0
   -5.1983    4.5012    0.0000 C   0  0
   -1.2990   -0.7500    0.0000 C   0  0
    0.0000   -1.5000    0.0000 C   0  0
    5.1943   -3.0089    0.0000 C   0  0
    5.1991   -1.5088    0.0000 C   0  0
    6.5004   -0.7628    0.0000 C   0  0
    7.7971   -1.5169    0.0000 C   0  0
    7.7925   -3.0169    0.0000 C   0  0
    6.4911   -3.7628    0.0000 C   0  0
    1.7202  -10.3563    0.0000 C   0  0
    0.5947  -11.3478    0.0000 C   0  0
    3.1415  -10.8357    0.0000 C   0  0
   -0.4249   -6.9833    0.0000 O   0  0
   -1.9248   -6.9666    0.0000 N   0  0
  1  2  1  0
  2  3  1  0
  3  4  2  0
  5  4  1  6
  5  6  1  0
  6  7  2  0
  6  8  1  0
  8  9  1  0
  9 10  1  0
 10 11  1  1
 10 12  1  0
 12 13  1  0
 13  8  1  0
 13 14  1  6
 14 15  2  0
 14 16  1  0
 17 16  1  1
 17 18  1  0
 18 19  1  0
 19 20  2  0
 19 21  1  0
 21 22  1  0
 22 23  1  0
 23 24  1  0
 24 25  1  0
 25 26  3  0
 26 27  1  0
 27 28  2  0
 28 29  1  0
 29 30  2  0
 30 31  1  0
 31 32  2  0
 31 33  1  0
 34 33  1  6
 34 35  1  0
 35 36  1  0
 35 37  1  0
 35 38  1  0
 38 39  1  1
 39 40  1  0
 40 41  2  0
 41 42  1  0
 42 43  2  0
 43 44  1  0
 44 45  3  0
 43 46  1  0
 46 47  1  0
 46 48  2  0
 48 40  1  0
 38 49  1  0
 49 34  1  0
 49 50  1  0
 49 51  1  0
 30 52  1  0
 52 53  2  0
 53 27  1  0
 24 54  1  0
 54 55  1  0
 55 21  1  0
 17 56  1  0
 56 57  2  0
 57 58  1  0
 58 59  2  0
 59 60  1  0
 60 61  2  0
 61 56  1  0
  5 62  1  0
 62 63  1  0
 62 64  1  0
  4 65  1  0
 65 66  1  0
 66  2  2  0
M  END
> <assay_chembl_id>
CHEMBL4325013

> <assay_description>
Antiproliferative activity against AR-positive human LNCAP cells incubated for 7 days in presence of AR agonist, R1881 by WST-8 assay

> <document_journal>
J Med Chem

> <molecule_chembl_id>
CHEMBL4525203

> <standard_value>
2

> <IC50_uM>
0.002

> <Activity>
Yes

> <Canonical_Smiles>
Cc1cc([C@H](C(=O)N2C[C@H](O)C[C@H]2C(=O)N[C@@H](CC(=O)N2CCC(C#Cc3ccc(C(=O)N[C@H]4C(C)(C)[C@H](Oc5ccc(C#N)c(Cl)c5)C4(C)C)cc3)CC2)c2ccccc2)C(C)C)on1

$$$$

  SciTegic03142313312D

 29 31  0  0  1  0            999 V2000
    4.3872   -2.7090    0.0000 C   0  0
    3.6522   -4.0166    0.0000 C   0  0
    4.4108   -5.3106    0.0000 C   0  0
    2.5879   -5.0735    0.0000 C   0  0  2  0  0  0
    2.5858   -6.5683    0.0000 N   0  0
    3.8840   -7.3213    0.0000 C   0  0
    5.1843   -6.5736    0.0000 O   0  0
    3.8819   -8.8222    0.0000 C   0  0
    5.0924   -9.6862    0.0000 C   0  0
    4.6240  -11.1111    0.0000 N   0  0
    3.1240  -11.1060    0.0000 N   0  0
    2.2367  -12.3132    0.0000 C   0  0
    0.7449  -12.1490    0.0000 C   0  0
   -0.1435  -13.3576    0.0000 O   0  0
    2.6654   -9.6778    0.0000 C   0  0
    1.5309   -4.0092    0.0000 C   0  0
    0.8052   -2.6964    0.0000 C   0  0
    0.7633   -5.2979    0.0000 C   0  0
    2.5951   -3.0039    0.0000 C   0  0  1  0  0  0
    2.5973   -1.5031    0.0000 O   0  0
    1.2990   -0.7500    0.0000 C   0  0
    1.2990    0.7500    0.0000 C   0  0
    0.0000    1.5000    0.0000 C   0  0
   -1.2990    0.7500    0.0000 C   0  0
   -2.5988    1.5004    0.0000 C   0  0
   -3.8978    2.2504    0.0000 N   0  0
   -1.2990   -0.7500    0.0000 C   0  0
   -2.5981   -1.5000    0.0000 Cl  0  0
    0.0000   -1.5000    0.0000 C   0  0
  1  2  1  0
  2  3  1  0
  2  4  1  0
  4  5  1  6
  5  6  1  0
  6  7  2  0
  6  8  1  0
  8  9  1  0
  9 10  2  0
 10 11  1  0
 11 12  1  0
 12 13  1  0
 13 14  1  0
 11 15  1  0
 15  8  2  0
  4 16  1  0
 16 17  1  0
 16 18  1  0
 16 19  1  0
 19  2  1  0
 19 20  1  1
 20 21  1  0
 21 22  2  0
 22 23  1  0
 23 24  2  0
 24 25  1  0
 25 26  3  0
 24 27  1  0
 27 28  1  0
 27 29  2  0
 29 21  1  0
M  END
> <assay_chembl_id>
CHEMBL4325013

> <assay_description>
Antiproliferative activity against AR-positive human LNCAP cells incubated for 7 days in presence of AR agonist, R1881 by WST-8 assay

> <document_journal>
J Med Chem

> <molecule_chembl_id>
CHEMBL1916251

> <standard_value>
64.5

> <IC50_uM>
0.0645

> <Activity>
Yes

> <Canonical_Smiles>
CC1(C)[C@H](NC(=O)c2cnn(CCO)c2)C(C)(C)[C@H]1Oc1ccc(C#N)c(Cl)c1

$$$$

  SciTegic03142313312D

 27 28  0  0  0  0            999 V2000
    5.1937   -3.0093    0.0000 C   0  0
    3.8933   -3.7570    0.0000 C   0  0  3  0  0  0
    2.5951   -3.0039    0.0000 C   0  0
    2.5973   -1.5031    0.0000 S   0  0
    1.2990   -0.7500    0.0000 C   0  0
    1.2990    0.7500    0.0000 C   0  0
    0.0000    1.5000    0.0000 C   0  0
   -1.2990    0.7500    0.0000 C   0  0
   -2.5981    1.5000    0.0000 F   0  0
   -1.2990   -0.7500    0.0000 C   0  0
    0.0000   -1.5000    0.0000 C   0  0
    3.8912   -5.2578    0.0000 C   0  0
    2.5909   -6.0056    0.0000 O   0  0
    5.1894   -6.0109    0.0000 N   0  0
    5.1873   -7.5117    0.0000 C   0  0
    6.4837   -8.2663    0.0000 C   0  0
    6.4785   -9.7663    0.0000 C   0  0
    5.1769  -10.5118    0.0000 C   0  0
    5.1748  -12.0126    0.0000 N   0  3
    6.4723  -12.7653    0.0000 O   0  0
    3.8744  -12.7604    0.0000 O   0  5
    3.8804   -9.7573    0.0000 C   0  0
    2.5781  -10.5032    0.0000 C   0  0
    2.5720  -12.0032    0.0000 F   0  0
    1.2819   -9.7483    0.0000 F   0  0
    1.2761  -11.2481    0.0000 F   0  0
    3.8856   -8.2573    0.0000 C   0  0
  2  1  1  4
  2  3  1  0
  3  4  1  0
  4  5  1  0
  5  6  2  0
  6  7  1  0
  7  8  2  0
  8  9  1  0
  8 10  1  0
 10 11  2  0
 11  5  1  0
  2 12  1  0
 12 13  2  0
 12 14  1  0
 14 15  1  0
 15 16  2  0
 16 17  1  0
 17 18  2  0
 18 19  1  0
 19 20  2  0
 19 21  1  0
 18 22  1  0
 22 23  1  0
 23 24  1  0
 23 25  1  0
 23 26  1  0
 22 27  2  0
 27 15  1  0
M  CHG  2  19   1  21  -1
M  END
> <assay_chembl_id>
CHEMBL4339289

> <assay_description>
Antiproliferative activity against human LNCAP cells assessed as reduction in cell viability after 96 hrs by MTT assay

> <document_journal>
Eur J Med Chem

> <molecule_chembl_id>
CHEMBL4574474

> <standard_value>
27160

> <IC50_uM>
27.16

> <Activity>
No

> <Canonical_Smiles>
CC(CSc1ccc(F)cc1)C(=O)Nc1ccc([N+](=O)[O-])c(C(F)(F)F)c1

$$$$

  SciTegic03142313312D

 27 28  0  0  0  0            999 V2000
    5.1937   -3.0093    0.0000 C   0  0
    3.8933   -3.7570    0.0000 C   0  0  3  0  0  0
    2.5951   -3.0039    0.0000 C   0  0
    2.5973   -1.5031    0.0000 S   0  0
    1.2990   -0.7500    0.0000 C   0  0
    1.2990    0.7500    0.0000 C   0  0
    0.0000    1.5000    0.0000 C   0  0
   -1.2990    0.7500    0.0000 C   0  0
   -2.5981    1.5000    0.0000 F   0  0
   -1.2990   -0.7500    0.0000 C   0  0
    0.0000   -1.5000    0.0000 C   0  0
    3.8912   -5.2578    0.0000 C   0  0
    2.5909   -6.0056    0.0000 O   0  0
    5.1894   -6.0109    0.0000 N   0  0
    5.1873   -7.5117    0.0000 C   0  0
    3.8856   -8.2573    0.0000 C   0  0
    3.8804   -9.7573    0.0000 C   0  0
    5.1769  -10.5118    0.0000 C   0  0
    5.1748  -12.0126    0.0000 N   0  3
    6.4723  -12.7653    0.0000 O   0  0
    3.8745  -12.7604    0.0000 O   0  5
    6.4785   -9.7663    0.0000 C   0  0
    6.4837   -8.2663    0.0000 C   0  0
    7.7860   -7.5204    0.0000 C   0  0
    9.0829   -8.2741    0.0000 F   0  0
    7.7908   -6.0204    0.0000 F   0  0
    9.0873   -6.7743    0.0000 F   0  0
  2  1  1  4
  2  3  1  0
  3  4  1  0
  4  5  1  0
  5  6  2  0
  6  7  1  0
  7  8  2  0
  8  9  1  0
  8 10  1  0
 10 11  2  0
 11  5  1  0
  2 12  1  0
 12 13  2  0
 12 14  1  0
 14 15  1  0
 15 16  2  0
 16 17  1  0
 17 18  2  0
 18 19  1  0
 19 20  2  0
 19 21  1  0
 18 22  1  0
 22 23  2  0
 23 15  1  0
 23 24  1  0
 24 25  1  0
 24 26  1  0
 24 27  1  0
M  CHG  2  19   1  21  -1
M  END
> <assay_chembl_id>
CHEMBL4339289

> <assay_description>
Antiproliferative activity against human LNCAP cells assessed as reduction in cell viability after 96 hrs by MTT assay

> <document_journal>
Eur J Med Chem

> <molecule_chembl_id>
CHEMBL4584441

> <standard_value>
43190

> <IC50_uM>
43.19

> <Activity>
No

> <Canonical_Smiles>
CC(CSc1ccc(F)cc1)C(=O)Nc1ccc([N+](=O)[O-])cc1C(F)(F)F

$$$$

  SciTegic03142313312D

 30 31  0  0  0  0            999 V2000
    5.1937   -3.0093    0.0000 C   0  0
    3.8933   -3.7570    0.0000 C   0  0  3  0  0  0
    2.5951   -3.0039    0.0000 C   0  0
    2.5973   -1.5031    0.0000 S   0  0
    1.2990   -0.7500    0.0000 C   0  0
    1.2990    0.7500    0.0000 C   0  0
    0.0000    1.5000    0.0000 C   0  0
   -1.2990    0.7500    0.0000 C   0  0
   -2.5988    1.5004    0.0000 C   0  0
   -2.5998    3.0004    0.0000 F   0  0
   -3.8976    0.7500    0.0000 F   0  0
   -3.8982    2.2498    0.0000 F   0  0
   -1.2990   -0.7500    0.0000 C   0  0
    0.0000   -1.5000    0.0000 C   0  0
    3.8912   -5.2578    0.0000 C   0  0
    2.5909   -6.0056    0.0000 O   0  0
    5.1894   -6.0109    0.0000 N   0  0
    5.1873   -7.5117    0.0000 C   0  0
    3.8856   -8.2573    0.0000 C   0  0
    3.8804   -9.7573    0.0000 C   0  0
    5.1769  -10.5118    0.0000 C   0  0
    5.1748  -12.0126    0.0000 N   0  3
    6.4723  -12.7653    0.0000 O   0  0
    3.8745  -12.7604    0.0000 O   0  5
    6.4785   -9.7663    0.0000 C   0  0
    6.4837   -8.2663    0.0000 C   0  0
    7.7860   -7.5204    0.0000 C   0  0
    9.0829   -8.2741    0.0000 F   0  0
    7.7908   -6.0204    0.0000 F   0  0
    9.0873   -6.7743    0.0000 F   0  0
  2  1  1  4
  2  3  1  0
  3  4  1  0
  4  5  1  0
  5  6  2  0
  6  7  1  0
  7  8  2  0
  8  9  1  0
  9 10  1  0
  9 11  1  0
  9 12  1  0
  8 13  1  0
 13 14  2  0
 14  5  1  0
  2 15  1  0
 15 16  2  0
 15 17  1  0
 17 18  1  0
 18 19  2  0
 19 20  1  0
 20 21  2  0
 21 22  1  0
 22 23  2  0
 22 24  1  0
 21 25  1  0
 25 26  2  0
 26 18  1  0
 26 27  1  0
 27 28  1  0
 27 29  1  0
 27 30  1  0
M  CHG  2  22   1  24  -1
M  END
> <assay_chembl_id>
CHEMBL4339289

> <assay_description>
Antiproliferative activity against human LNCAP cells assessed as reduction in cell viability after 96 hrs by MTT assay

> <document_journal>
Eur J Med Chem

> <molecule_chembl_id>
CHEMBL4460683

> <standard_value>
54330

> <IC50_uM>
54.33

> <Activity>
No

> <Canonical_Smiles>
CC(CSc1ccc(C(F)(F)F)cc1)C(=O)Nc1ccc([N+](=O)[O-])cc1C(F)(F)F

$$$$

  SciTegic03142313312D

 34 35  0  0  0  0            999 V2000
    5.1937   -3.0093    0.0000 C   0  0
    3.8933   -3.7570    0.0000 C   0  0  3  0  0  0
    2.5951   -3.0039    0.0000 C   0  0
    2.5973   -1.5031    0.0000 S   0  0
    1.2990   -0.7500    0.0000 C   0  0
    1.2990    0.7500    0.0000 C   0  0
    0.0000    1.5000    0.0000 C   0  0
    0.0000    3.0008    0.0000 C   0  0
    1.2985    3.7517    0.0000 F   0  0
   -1.2993    3.7504    0.0000 F   0  0
   -0.0007    4.5008    0.0000 F   0  0
   -1.2990    0.7500    0.0000 C   0  0
   -1.2990   -0.7500    0.0000 C   0  0
   -2.5988   -1.5004    0.0000 C   0  0
   -3.8983   -0.7513    0.0000 F   0  0
   -2.5983   -3.0004    0.0000 F   0  0
   -3.8975   -2.2510    0.0000 F   0  0
    0.0000   -1.5000    0.0000 C   0  0
    3.8912   -5.2578    0.0000 C   0  0
    2.5909   -6.0056    0.0000 O   0  0
    5.1894   -6.0109    0.0000 N   0  0
    5.1873   -7.5117    0.0000 C   0  0
    3.8856   -8.2573    0.0000 C   0  0
    3.8804   -9.7573    0.0000 C   0  0
    5.1769  -10.5118    0.0000 C   0  0
    5.1748  -12.0126    0.0000 N   0  3
    6.4723  -12.7653    0.0000 O   0  0
    3.8745  -12.7604    0.0000 O   0  5
    6.4785   -9.7663    0.0000 C   0  0
    6.4837   -8.2663    0.0000 C   0  0
    7.7860   -7.5204    0.0000 C   0  0
    9.0829   -8.2741    0.0000 F   0  0
    7.7908   -6.0204    0.0000 F   0  0
    9.0873   -6.7743    0.0000 F   0  0
  2  1  1  4
  2  3  1  0
  3  4  1  0
  4  5  1  0
  5  6  2  0
  6  7  1  0
  7  8  1  0
  8  9  1  0
  8 10  1  0
  8 11  1  0
  7 12  2  0
 12 13  1  0
 13 14  1  0
 14 15  1  0
 14 16  1  0
 14 17  1  0
 13 18  2  0
 18  5  1  0
  2 19  1  0
 19 20  2  0
 19 21  1  0
 21 22  1  0
 22 23  2  0
 23 24  1  0
 24 25  2  0
 25 26  1  0
 26 27  2  0
 26 28  1  0
 25 29  1  0
 29 30  2  0
 30 22  1  0
 30 31  1  0
 31 32  1  0
 31 33  1  0
 31 34  1  0
M  CHG  2  26   1  28  -1
M  END
> <assay_chembl_id>
CHEMBL4339289

> <assay_description>
Antiproliferative activity against human LNCAP cells assessed as reduction in cell viability after 96 hrs by MTT assay

> <document_journal>
Eur J Med Chem

> <molecule_chembl_id>
CHEMBL4436192

> <standard_value>
43680

> <IC50_uM>
43.68

> <Activity>
No

> <Canonical_Smiles>
CC(CSc1cc(C(F)(F)F)cc(C(F)(F)F)c1)C(=O)Nc1ccc([N+](=O)[O-])cc1C(F)(F)F

$$$$

  SciTegic03142313312D

 49 51  0  0  0  0            999 V2000
    5.1937   -3.0093    0.0000 C   0  0
    3.8933   -3.7570    0.0000 C   0  0  3  0  0  0
    2.5951   -3.0039    0.0000 C   0  0
    2.5973   -1.5031    0.0000 S   0  0
    1.2990   -0.7500    0.0000 C   0  0
    1.2990    0.7500    0.0000 C   0  0
    0.0000    1.5000    0.0000 C   0  0
    0.0000    3.0008    0.0000 C   0  0
    1.2985    3.7517    0.0000 F   0  0
   -1.2993    3.7504    0.0000 F   0  0
   -0.0007    4.5008    0.0000 F   0  0
   -1.2990    0.7500    0.0000 C   0  0
   -1.2990   -0.7500    0.0000 C   0  0
   -2.5988   -1.5004    0.0000 C   0  0
   -3.8983   -0.7513    0.0000 F   0  0
   -2.5983   -3.0004    0.0000 F   0  0
   -3.8975   -2.2510    0.0000 F   0  0
    0.0000   -1.5000    0.0000 C   0  0
    3.8982   -2.2270    0.0000 S   0  0
    5.1998   -1.4799    0.0000 C   0  0
    5.2068    0.0201    0.0000 C   0  0
    6.5092    0.7641    0.0000 C   0  0
    6.5161    2.2649    0.0000 C   0  0
    5.2210    3.0217    0.0000 F   0  0
    7.8188    3.0086    0.0000 F   0  0
    6.5237    3.7649    0.0000 F   0  0
    7.8048    0.0082    0.0000 C   0  0
    7.7980   -1.4918    0.0000 C   0  0
    9.0943   -2.2482    0.0000 C   0  0
   10.3972   -1.5049    0.0000 F   0  0
    9.0869   -3.7481    0.0000 F   0  0
   10.3895   -3.0047    0.0000 F   0  0
    6.4955   -2.2358    0.0000 C   0  0
    3.8912   -5.2578    0.0000 C   0  0
    2.5909   -6.0056    0.0000 O   0  0
    5.1894   -6.0109    0.0000 N   0  0
    5.1873   -7.5117    0.0000 C   0  0
    3.8856   -8.2573    0.0000 C   0  0
    3.8804   -9.7573    0.0000 C   0  0
    5.1769  -10.5118    0.0000 C   0  0
    5.1748  -12.0126    0.0000 N   0  3
    6.4723  -12.7653    0.0000 O   0  0
    3.8745  -12.7604    0.0000 O   0  5
    6.4785   -9.7663    0.0000 C   0  0
    6.4837   -8.2663    0.0000 C   0  0
    7.7860   -7.5204    0.0000 C   0  0
    9.0829   -8.2741    0.0000 F   0  0
    7.7908   -6.0204    0.0000 F   0  0
    9.0873   -6.7743    0.0000 F   0  0
  2  1  1  4
  2  3  1  0
  3  4  1  0
  4  5  1  0
  5  6  2  0
  6  7  1  0
  7  8  1  0
  8  9  1  0
  8 10  1  0
  8 11  1  0
  7 12  2  0
 12 13  1  0
 13 14  1  0
 14 15  1  0
 14 16  1  0
 14 17  1  0
 13 18  2  0
 18  5  1  0
  2 19  1  0
 19 20  1  0
 20 21  2  0
 21 22  1  0
 22 23  1  0
 23 24  1  0
 23 25  1  0
 23 26  1  0
 22 27  2  0
 27 28  1  0
 28 29  1  0
 29 30  1  0
 29 31  1  0
 29 32  1  0
 28 33  2  0
 33 20  1  0
  2 34  1  0
 34 35  2  0
 34 36  1  0
 36 37  1  0
 37 38  2  0
 38 39  1  0
 39 40  2  0
 40 41  1  0
 41 42  2  0
 41 43  1  0
 40 44  1  0
 44 45  2  0
 45 37  1  0
 45 46  1  0
 46 47  1  0
 46 48  1  0
 46 49  1  0
M  CHG  2  41   1  43  -1
M  END
> <assay_chembl_id>
CHEMBL4339289

> <assay_description>
Antiproliferative activity against human LNCAP cells assessed as reduction in cell viability after 96 hrs by MTT assay

> <document_journal>
Eur J Med Chem

> <molecule_chembl_id>
CHEMBL4475710

> <standard_value>
430

> <IC50_uM>
0.43

> <Activity>
Yes

> <Canonical_Smiles>
CC(CSc1cc(C(F)(F)F)cc(C(F)(F)F)c1)(Sc1cc(C(F)(F)F)cc(C(F)(F)F)c1)C(=O)Nc1ccc([N+](=O)[O-])cc1C(F)(F)F

$$$$

  SciTegic03142313312D

 31 32  0  0  0  0            999 V2000
    5.1983   -3.0012    0.0000 C   0  0
    5.1988   -1.5012    0.0000 C   0  0  3  0  0  0
    3.8990   -0.7508    0.0000 C   0  0
    2.5988   -1.5004    0.0000 S   0  0
    3.8975   -2.2510    0.0000 O   0  0
    2.5983   -3.0004    0.0000 O   0  0
    1.2990   -0.7500    0.0000 C   0  0
    1.2990    0.7500    0.0000 C   0  0
    0.0000    1.5000    0.0000 C   0  0
   -1.2990    0.7500    0.0000 C   0  0
   -2.5988    1.5004    0.0000 C   0  0
   -2.5998    3.0004    0.0000 F   0  0
   -3.8976    0.7500    0.0000 F   0  0
   -3.8982    2.2498    0.0000 F   0  0
   -1.2990   -0.7500    0.0000 C   0  0
    0.0000   -1.5000    0.0000 C   0  0
    6.4990   -0.7516    0.0000 C   0  0
    6.4995    0.7484    0.0000 O   0  0
    7.7988   -1.5020    0.0000 N   0  0
    9.0990   -0.7525    0.0000 C   0  0
   10.3991   -1.5006    0.0000 C   0  0
   11.6971   -0.7487    0.0000 C   0  0
   11.6950    0.7512    0.0000 C   0  0
   12.9937    1.5035    0.0000 C   0  0
   14.2917    2.2553    0.0000 N   0  0
   10.3949    1.4994    0.0000 C   0  0
   10.3928    3.0003    0.0000 C   0  0
   11.6903    3.7529    0.0000 F   0  0
    9.0925    3.7480    0.0000 F   0  0
   10.3900    4.5002    0.0000 F   0  0
    9.0969    0.7476    0.0000 C   0  0
  2  1  1  4
  2  3  1  0
  3  4  1  0
  4  5  2  0
  4  6  2  0
  4  7  1  0
  7  8  2  0
  8  9  1  0
  9 10  2  0
 10 11  1  0
 11 12  1  0
 11 13  1  0
 11 14  1  0
 10 15  1  0
 15 16  2  0
 16  7  1  0
  2 17  1  0
 17 18  2  0
 17 19  1  0
 19 20  1  0
 20 21  2  0
 21 22  1  0
 22 23  2  0
 23 24  1  0
 24 25  3  0
 23 26  1  0
 26 27  1  0
 27 28  1  0
 27 29  1  0
 27 30  1  0
 26 31  2  0
 31 20  1  0
M  END
> <assay_chembl_id>
CHEMBL4339289

> <assay_description>
Antiproliferative activity against human LNCAP cells assessed as reduction in cell viability after 96 hrs by MTT assay

> <document_journal>
Eur J Med Chem

> <molecule_chembl_id>
CHEMBL4517200

> <standard_value>
57980

> <IC50_uM>
57.98

> <Activity>
No

> <Canonical_Smiles>
CC(CS(=O)(=O)c1ccc(C(F)(F)F)cc1)C(=O)Nc1ccc(C#N)c(C(F)(F)F)c1

$$$$

  SciTegic03142313312D

 31 32  0  0  0  0            999 V2000
    5.1983   -3.0012    0.0000 C   0  0
    5.1988   -1.5012    0.0000 C   0  0  3  0  0  0
    3.8990   -0.7508    0.0000 C   0  0
    2.5988   -1.5004    0.0000 S   0  0
    3.8975   -2.2510    0.0000 O   0  0
    2.5983   -3.0004    0.0000 O   0  0
    1.2990   -0.7500    0.0000 C   0  0
    1.2990    0.7500    0.0000 C   0  0
    0.0000    1.5000    0.0000 C   0  0
   -1.2990    0.7500    0.0000 C   0  0
   -2.5988    1.5004    0.0000 C   0  0
   -2.5998    3.0004    0.0000 F   0  0
   -3.8976    0.7500    0.0000 F   0  0
   -3.8982    2.2498    0.0000 F   0  0
   -1.2990   -0.7500    0.0000 C   0  0
    0.0000   -1.5000    0.0000 C   0  0
    6.4990   -0.7516    0.0000 C   0  0
    6.4995    0.7484    0.0000 O   0  0
    7.7988   -1.5020    0.0000 N   0  0
    9.0990   -0.7525    0.0000 C   0  0
    9.0969    0.7476    0.0000 C   0  0
   10.3949    1.4994    0.0000 C   0  0
   11.6950    0.7512    0.0000 C   0  0
   12.9937    1.5035    0.0000 C   0  0
   14.2917    2.2553    0.0000 N   0  0
   11.6971   -0.7488    0.0000 C   0  0
   10.3991   -1.5006    0.0000 C   0  0
   10.4013   -3.0014    0.0000 C   0  0
   11.7009   -3.7504    0.0000 F   0  0
    9.1031   -3.7528    0.0000 F   0  0
   10.4027   -4.5014    0.0000 F   0  0
  2  1  1  4
  2  3  1  0
  3  4  1  0
  4  5  2  0
  4  6  2  0
  4  7  1  0
  7  8  2  0
  8  9  1  0
  9 10  2  0
 10 11  1  0
 11 12  1  0
 11 13  1  0
 11 14  1  0
 10 15  1  0
 15 16  2  0
 16  7  1  0
  2 17  1  0
 17 18  2  0
 17 19  1  0
 19 20  1  0
 20 21  2  0
 21 22  1  0
 22 23  2  0
 23 24  1  0
 24 25  3  0
 23 26  1  0
 26 27  2  0
 27 20  1  0
 27 28  1  0
 28 29  1  0
 28 30  1  0
 28 31  1  0
M  END
> <assay_chembl_id>
CHEMBL4339289

> <assay_description>
Antiproliferative activity against human LNCAP cells assessed as reduction in cell viability after 96 hrs by MTT assay

> <document_journal>
Eur J Med Chem

> <molecule_chembl_id>
CHEMBL4591325

> <standard_value>
28790

> <IC50_uM>
28.79

> <Activity>
No

> <Canonical_Smiles>
CC(CS(=O)(=O)c1ccc(C(F)(F)F)cc1)C(=O)Nc1ccc(C#N)cc1C(F)(F)F

$$$$

  SciTegic03142313312D

 32 33  0  0  0  0            999 V2000
    5.1983   -3.0012    0.0000 C   0  0
    5.1988   -1.5012    0.0000 C   0  0  3  0  0  0
    3.8990   -0.7508    0.0000 C   0  0
    2.5988   -1.5004    0.0000 S   0  0
    3.8975   -2.2510    0.0000 O   0  0
    2.5983   -3.0004    0.0000 O   0  0
    1.2990   -0.7500    0.0000 C   0  0
    1.2990    0.7500    0.0000 C   0  0
    0.0000    1.5000    0.0000 C   0  0
   -1.2990    0.7500    0.0000 C   0  0
   -2.5988    1.5004    0.0000 C   0  0
   -2.5998    3.0004    0.0000 F   0  0
   -3.8976    0.7500    0.0000 F   0  0
   -3.8982    2.2498    0.0000 F   0  0
   -1.2990   -0.7500    0.0000 C   0  0
    0.0000   -1.5000    0.0000 C   0  0
    6.4990   -0.7516    0.0000 C   0  0
    6.4995    0.7484    0.0000 O   0  0
    7.7988   -1.5020    0.0000 N   0  0
    9.0990   -0.7525    0.0000 C   0  0
    9.0969    0.7476    0.0000 C   0  0
   10.3949    1.4994    0.0000 C   0  0
   11.6950    0.7512    0.0000 C   0  0
   12.9953    1.5008    0.0000 N   0  3
   14.2943    0.7508    0.0000 O   0  0
   12.9958    3.0008    0.0000 O   0  5
   11.6971   -0.7488    0.0000 C   0  0
   10.3991   -1.5006    0.0000 C   0  0
   10.4013   -3.0014    0.0000 C   0  0
   11.7009   -3.7504    0.0000 F   0  0
    9.1031   -3.7528    0.0000 F   0  0
   10.4027   -4.5014    0.0000 F   0  0
  2  1  1  4
  2  3  1  0
  3  4  1  0
  4  5  2  0
  4  6  2  0
  4  7  1  0
  7  8  2  0
  8  9  1  0
  9 10  2  0
 10 11  1  0
 11 12  1  0
 11 13  1  0
 11 14  1  0
 10 15  1  0
 15 16  2  0
 16  7  1  0
  2 17  1  0
 17 18  2  0
 17 19  1  0
 19 20  1  0
 20 21  2  0
 21 22  1  0
 22 23  2  0
 23 24  1  0
 24 25  2  0
 24 26  1  0
 23 27  1  0
 27 28  2  0
 28 20  1  0
 28 29  1  0
 29 30  1  0
 29 31  1  0
 29 32  1  0
M  CHG  2  24   1  26  -1
M  END
> <assay_chembl_id>
CHEMBL4339289

> <assay_description>
Antiproliferative activity against human LNCAP cells assessed as reduction in cell viability after 96 hrs by MTT assay

> <document_journal>
Eur J Med Chem

> <molecule_chembl_id>
CHEMBL4540512

> <standard_value>
26340

> <IC50_uM>
26.34

> <Activity>
No

> <Canonical_Smiles>
CC(CS(=O)(=O)c1ccc(C(F)(F)F)cc1)C(=O)Nc1ccc([N+](=O)[O-])cc1C(F)(F)F

$$$$

  SciTegic03142313312D

 32 34  0  0  1  0            999 V2000
    2.4283   -5.7163    0.0000 C   0  0
    3.9195   -5.8781    0.0000 C   0  0  1  0  0  0
    4.8054   -4.6666    0.0000 C   0  0
    4.2010   -3.2956    0.0000 N   0  0
    4.9531   -1.9978    0.0000 C   0  0
    3.9511   -0.8815    0.0000 C   0  0
    2.5987   -1.5004    0.0000 C   0  0
    1.2990   -0.7500    0.0000 C   0  0
    1.2990    0.7500    0.0000 C   0  0
    0.0000    1.5000    0.0000 C   0  0
   -1.2990    0.7500    0.0000 C   0  0
   -2.5988    1.5004    0.0000 C   0  0
   -3.8978    2.2504    0.0000 N   0  0
   -1.2990   -0.7500    0.0000 C   0  0
   -2.5981   -1.5000    0.0000 Cl  0  0
    0.0000   -1.5000    0.0000 C   0  0
    2.7343   -2.9815    0.0000 N   0  0
    4.5250   -7.2514    0.0000 N   0  0
    3.6391   -8.4629    0.0000 C   0  0
    2.1479   -8.3011    0.0000 O   0  0
    4.2445   -9.8362    0.0000 C   0  0
    3.3609  -11.0484    0.0000 C   0  0
    3.9688  -12.4197    0.0000 C   0  0
    5.4604  -12.5789    0.0000 C   0  0
    6.3440  -11.3668    0.0000 C   0  0
    7.8367  -11.5231    0.0000 O   0  0
    8.7191  -10.3090    0.0000 C   0  0
   10.2118  -10.4653    0.0000 C   0  0  3  0  0  0
   10.8220  -11.8355    0.0000 O   0  0
   11.0942   -9.2513    0.0000 C   0  0
   12.5860   -9.4074    0.0000 O   0  0
    5.7361   -9.9955    0.0000 C   0  0
  2  1  1  1
  2  3  1  0
  3  4  1  0
  4  5  1  0
  5  6  2  0
  6  7  1  0
  7  8  1  0
  8  9  2  0
  9 10  1  0
 10 11  2  0
 11 12  1  0
 12 13  3  0
 11 14  1  0
 14 15  1  0
 14 16  2  0
 16  8  1  0
  7 17  2  0
 17  4  1  0
  2 18  1  0
 18 19  1  0
 19 20  2  0
 19 21  1  0
 21 22  2  0
 22 23  1  0
 23 24  2  0
 24 25  1  0
 25 26  1  0
 26 27  1  0
 27 28  1  0
 28 29  1  4
 28 30  1  0
 30 31  1  0
 25 32  2  0
 32 21  1  0
M  END
> <assay_chembl_id>
CHEMBL4362988

> <assay_description>
Antiproliferative activity against human LNCAP expressing AR assessed as reduction in cell viability incubated for 6 days by CCK-8 assay

> <document_journal>
Eur J Med Chem

> <molecule_chembl_id>
CHEMBL4455196

> <standard_value>
740

> <IC50_uM>
0.74

> <Activity>
Yes

> <Canonical_Smiles>
C[C@@H](Cn1ccc(-c2ccc(C#N)c(Cl)c2)n1)NC(=O)c1cccc(OCC(O)CO)c1

$$$$

  SciTegic03142313312D

 24 26  0  0  1  0            999 V2000
    2.4283   -5.7163    0.0000 C   0  0
    3.9195   -5.8781    0.0000 C   0  0  1  0  0  0
    4.8054   -4.6666    0.0000 C   0  0
    4.2010   -3.2956    0.0000 N   0  0
    4.9531   -1.9978    0.0000 C   0  0
    3.9511   -0.8815    0.0000 C   0  0
    2.5987   -1.5004    0.0000 C   0  0
    1.2990   -0.7500    0.0000 C   0  0
    1.2990    0.7500    0.0000 C   0  0
    0.0000    1.5000    0.0000 C   0  0
   -1.2990    0.7500    0.0000 C   0  0
   -2.5988    1.5004    0.0000 C   0  0
   -3.8978    2.2504    0.0000 N   0  0
   -1.2990   -0.7500    0.0000 C   0  0
   -2.5981   -1.5000    0.0000 Cl  0  0
    0.0000   -1.5000    0.0000 C   0  0
    2.7343   -2.9815    0.0000 N   0  0
    4.5250   -7.2514    0.0000 N   0  0
    3.6391   -8.4629    0.0000 C   0  0
    4.2422   -9.8364    0.0000 C   0  0
    3.3544  -11.0454    0.0000 C   0  0
    1.8634  -10.8811    0.0000 C   0  0
    1.2603   -9.5077    0.0000 C   0  0
    2.1481   -8.2986    0.0000 C   0  0
  2  1  1  1
  2  3  1  0
  3  4  1  0
  4  5  1  0
  5  6  2  0
  6  7  1  0
  7  8  1  0
  8  9  2  0
  9 10  1  0
 10 11  2  0
 11 12  1  0
 12 13  3  0
 11 14  1  0
 14 15  1  0
 14 16  2  0
 16  8  1  0
  7 17  2  0
 17  4  1  0
  2 18  1  0
 18 19  1  0
 19 20  2  0
 20 21  1  0
 21 22  2  0
 22 23  1  0
 23 24  2  0
 24 19  1  0
M  END
> <assay_chembl_id>
CHEMBL4362988

> <assay_description>
Antiproliferative activity against human LNCAP expressing AR assessed as reduction in cell viability incubated for 6 days by CCK-8 assay

> <document_journal>
Eur J Med Chem

> <molecule_chembl_id>
CHEMBL4473822

> <standard_value>
710

> <IC50_uM>
0.71

> <Activity>
Yes

> <Canonical_Smiles>
C[C@@H](Cn1ccc(-c2ccc(C#N)c(Cl)c2)n1)Nc1ccccc1

$$$$

  SciTegic03142313312D

 24 26  0  0  1  0            999 V2000
    2.4283   -5.7163    0.0000 C   0  0
    3.9195   -5.8781    0.0000 C   0  0  1  0  0  0
    4.8054   -4.6666    0.0000 C   0  0
    4.2010   -3.2956    0.0000 N   0  0
    4.9531   -1.9978    0.0000 C   0  0
    3.9511   -0.8815    0.0000 C   0  0
    2.5987   -1.5004    0.0000 C   0  0
    1.2990   -0.7500    0.0000 C   0  0
    1.2990    0.7500    0.0000 C   0  0
    0.0000    1.5000    0.0000 C   0  0
   -1.2990    0.7500    0.0000 C   0  0
   -2.5988    1.5004    0.0000 C   0  0
   -3.8978    2.2504    0.0000 N   0  0
   -1.2990   -0.7500    0.0000 C   0  0
   -2.5981   -1.5000    0.0000 Cl  0  0
    0.0000   -1.5000    0.0000 C   0  0
    2.7343   -2.9815    0.0000 N   0  0
    4.5250   -7.2514    0.0000 N   0  0
    3.6391   -8.4629    0.0000 C   0  0
    4.2422   -9.8364    0.0000 C   0  0
    3.3544  -11.0454    0.0000 C   0  0
    1.8634  -10.8811    0.0000 C   0  0
    1.2603   -9.5077    0.0000 N   0  0
    2.1481   -8.2986    0.0000 C   0  0
  2  1  1  1
  2  3  1  0
  3  4  1  0
  4  5  1  0
  5  6  2  0
  6  7  1  0
  7  8  1  0
  8  9  2  0
  9 10  1  0
 10 11  2  0
 11 12  1  0
 12 13  3  0
 11 14  1  0
 14 15  1  0
 14 16  2  0
 16  8  1  0
  7 17  2  0
 17  4  1  0
  2 18  1  0
 18 19  1  0
 19 20  2  0
 20 21  1  0
 21 22  2  0
 22 23  1  0
 23 24  2  0
 24 19  1  0
M  END
> <assay_chembl_id>
CHEMBL4362988

> <assay_description>
Antiproliferative activity against human LNCAP expressing AR assessed as reduction in cell viability incubated for 6 days by CCK-8 assay

> <document_journal>
Eur J Med Chem

> <molecule_chembl_id>
CHEMBL4566259

> <standard_value>
430

> <IC50_uM>
0.43

> <Activity>
Yes

> <Canonical_Smiles>
C[C@@H](Cn1ccc(-c2ccc(C#N)c(Cl)c2)n1)Nc1cccnc1

$$$$

  SciTegic03142313312D

 28 31  0  0  1  0            999 V2000
    1.2948   -3.7516    0.0000 C   0  0
    2.5951   -3.0039    0.0000 C   0  0  1  0  0  0
    3.8933   -3.7570    0.0000 C   0  0
    3.8912   -5.2578    0.0000 N   0  0
    5.1017   -6.1219    0.0000 C   0  0
    4.6332   -7.5468    0.0000 C   0  0
    3.1332   -7.5416    0.0000 C   0  0
    2.2469   -8.7527    0.0000 C   0  0
    2.7464  -10.1618    0.0000 C   0  0
    1.7720  -11.3021    0.0000 C   0  0
    0.2972  -11.0284    0.0000 C   0  0
   -0.6778  -12.1694    0.0000 C   0  0
   -1.6523  -13.3098    0.0000 N   0  0
   -0.2032   -9.6143    0.0000 C   0  0
   -1.6780   -9.3406    0.0000 Cl  0  0
    0.7713   -8.4740    0.0000 C   0  0
    2.6747   -6.1134    0.0000 N   0  0
    2.5973   -1.5031    0.0000 N   0  0
    1.2990   -0.7500    0.0000 C   0  0
    1.2990    0.7500    0.0000 C   0  0
    0.0000    1.5000    0.0000 C   0  0
   -1.2990    0.7500    0.0000 C   0  0
   -2.5981    1.5000    0.0000 C   0  0
   -3.8971    0.7500    0.0000 N   0  0
   -3.8971   -0.7500    0.0000 C   0  0
   -2.5981   -1.5000    0.0000 C   0  0
   -1.2990   -0.7500    0.0000 C   0  0
    0.0000   -1.5000    0.0000 C   0  0
  2  1  1  6
  2  3  1  0
  3  4  1  0
  4  5  1  0
  5  6  2  0
  6  7  1  0
  7  8  1  0
  8  9  2  0
  9 10  1  0
 10 11  2  0
 11 12  1  0
 12 13  3  0
 11 14  1  0
 14 15  1  0
 14 16  2  0
 16  8  1  0
  7 17  2  0
 17  4  1  0
  2 18  1  0
 18 19  1  0
 19 20  2  0
 20 21  1  0
 21 22  2  0
 22 23  1  0
 23 24  2  0
 24 25  1  0
 25 26  2  0
 26 27  1  0
 27 22  1  0
 27 28  2  0
 28 19  1  0
M  END
> <assay_chembl_id>
CHEMBL4362988

> <assay_description>
Antiproliferative activity against human LNCAP expressing AR assessed as reduction in cell viability incubated for 6 days by CCK-8 assay

> <document_journal>
Eur J Med Chem

> <molecule_chembl_id>
CHEMBL4539360

> <standard_value>
510

> <IC50_uM>
0.51

> <Activity>
Yes

> <Canonical_Smiles>
C[C@@H](Cn1ccc(-c2ccc(C#N)c(Cl)c2)n1)Nc1ccc2cnccc2c1

$$$$

  SciTegic03142313312D

 28 31  0  0  1  0            999 V2000
    1.2948   -3.7516    0.0000 C   0  0
    2.5951   -3.0039    0.0000 C   0  0  1  0  0  0
    3.8933   -3.7570    0.0000 C   0  0
    3.8912   -5.2578    0.0000 N   0  0
    5.1017   -6.1219    0.0000 C   0  0
    4.6332   -7.5468    0.0000 C   0  0
    3.1332   -7.5416    0.0000 C   0  0
    2.2469   -8.7527    0.0000 C   0  0
    2.7464  -10.1618    0.0000 C   0  0
    1.7720  -11.3021    0.0000 C   0  0
    0.2972  -11.0284    0.0000 C   0  0
   -0.6778  -12.1694    0.0000 C   0  0
   -1.6523  -13.3098    0.0000 N   0  0
   -0.2032   -9.6143    0.0000 C   0  0
   -1.6780   -9.3406    0.0000 Cl  0  0
    0.7713   -8.4740    0.0000 C   0  0
    2.6747   -6.1134    0.0000 N   0  0
    2.5973   -1.5031    0.0000 N   0  0
    1.2990   -0.7500    0.0000 C   0  0
    1.2990    0.7500    0.0000 C   0  0
    0.0000    1.5000    0.0000 C   0  0
   -1.2990    0.7500    0.0000 C   0  0
   -1.2990   -0.7500    0.0000 C   0  0
   -2.7248   -1.2135    0.0000 C   0  0
   -3.6065    0.0000    0.0000 C   0  0
   -2.7248    1.2135    0.0000 N   0  0
   -3.1882    2.6401    0.0000 C   0  0
    0.0000   -1.5000    0.0000 C   0  0
  2  1  1  6
  2  3  1  0
  3  4  1  0
  4  5  1  0
  5  6  2  0
  6  7  1  0
  7  8  1  0
  8  9  2  0
  9 10  1  0
 10 11  2  0
 11 12  1  0
 12 13  3  0
 11 14  1  0
 14 15  1  0
 14 16  2  0
 16  8  1  0
  7 17  2  0
 17  4  1  0
  2 18  1  0
 18 19  1  0
 19 20  2  0
 20 21  1  0
 21 22  2  0
 22 23  1  0
 23 24  1  0
 24 25  2  0
 25 26  1  0
 26 22  1  0
 26 27  1  0
 23 28  2  0
 28 19  1  0
M  END
> <assay_chembl_id>
CHEMBL4362988

> <assay_description>
Antiproliferative activity against human LNCAP expressing AR assessed as reduction in cell viability incubated for 6 days by CCK-8 assay

> <document_journal>
Eur J Med Chem

> <molecule_chembl_id>
CHEMBL4445977

> <standard_value>
490

> <IC50_uM>
0.49

> <Activity>
Yes

> <Canonical_Smiles>
C[C@@H](Cn1ccc(-c2ccc(C#N)c(Cl)c2)n1)Nc1ccc2c(ccn2C)c1

$$$$

  SciTegic03142313312D

 28 31  0  0  1  0            999 V2000
    3.8964    0.7545    0.0000 C   0  0
    3.8990   -0.7455    0.0000 C   0  0  1  0  0  0
    5.2003   -1.4932    0.0000 C   0  0
    6.4990   -0.7409    0.0000 N   0  0
    7.8525   -1.3573    0.0000 C   0  0
    8.8523   -0.2391    0.0000 C   0  0
    8.0978    1.0574    0.0000 C   0  0
    8.7035    2.4305    0.0000 C   0  0
   10.1736    2.7024    0.0000 C   0  0
   10.6739    4.1165    0.0000 C   0  0
    9.6995    5.2569    0.0000 C   0  0
   10.2001    6.6718    0.0000 C   0  0
   10.7004    8.0858    0.0000 N   0  0
    8.2246    4.9832    0.0000 C   0  0
    7.2502    6.1235    0.0000 Cl  0  0
    7.7243    3.5691    0.0000 C   0  0
    6.6317    0.7404    0.0000 N   0  0
    2.6003   -1.4977    0.0000 N   0  0
    1.2990   -0.7500    0.0000 C   0  0
    1.2990    0.7500    0.0000 C   0  0
    0.0000    1.5000    0.0000 C   0  0
   -1.2990    0.7500    0.0000 C   0  0
   -1.2990   -0.7500    0.0000 C   0  0
   -2.5981   -1.5000    0.0000 C   0  0
   -2.5981   -3.0000    0.0000 C   0  0
   -1.2990   -3.7500    0.0000 C   0  0
    0.0000   -3.0000    0.0000 C   0  0
    0.0000   -1.5000    0.0000 C   0  0
  2  1  1  1
  2  3  1  0
  3  4  1  0
  4  5  1  0
  5  6  2  0
  6  7  1  0
  7  8  1  0
  8  9  2  0
  9 10  1  0
 10 11  2  0
 11 12  1  0
 12 13  3  0
 11 14  1  0
 14 15  1  0
 14 16  2  0
 16  8  1  0
  7 17  2  0
 17  4  1  0
  2 18  1  0
 18 19  1  0
 19 20  2  0
 20 21  1  0
 21 22  2  0
 22 23  1  0
 23 24  2  0
 24 25  1  0
 25 26  2  0
 26 27  1  0
 27 28  2  0
 28 19  1  0
 28 23  1  0
M  END
> <assay_chembl_id>
CHEMBL4362988

> <assay_description>
Antiproliferative activity against human LNCAP expressing AR assessed as reduction in cell viability incubated for 6 days by CCK-8 assay

> <document_journal>
Eur J Med Chem

> <molecule_chembl_id>
CHEMBL4548677

> <standard_value>
870

> <IC50_uM>
0.87

> <Activity>
Yes

> <Canonical_Smiles>
C[C@@H](Cn1ccc(-c2ccc(C#N)c(Cl)c2)n1)Nc1cccc2ccccc12

$$$$

  SciTegic03142313312D

 28 31  0  0  1  0            999 V2000
    3.8964    0.7545    0.0000 C   0  0
    3.8990   -0.7455    0.0000 C   0  0  1  0  0  0
    5.2003   -1.4932    0.0000 C   0  0
    6.4990   -0.7409    0.0000 N   0  0
    7.8525   -1.3573    0.0000 C   0  0
    8.8523   -0.2391    0.0000 C   0  0
    8.0978    1.0574    0.0000 C   0  0
    8.7035    2.4305    0.0000 C   0  0
   10.1736    2.7024    0.0000 C   0  0
   10.6739    4.1165    0.0000 C   0  0
    9.6995    5.2569    0.0000 C   0  0
   10.2001    6.6718    0.0000 C   0  0
   10.7004    8.0858    0.0000 N   0  0
    8.2246    4.9832    0.0000 C   0  0
    7.2502    6.1235    0.0000 Cl  0  0
    7.7243    3.5691    0.0000 C   0  0
    6.6317    0.7404    0.0000 N   0  0
    2.6003   -1.4977    0.0000 N   0  0
    1.2990   -0.7500    0.0000 C   0  0
    1.2990    0.7500    0.0000 C   0  0
    0.0000    1.5000    0.0000 C   0  0
   -1.2990    0.7500    0.0000 C   0  0
   -1.2990   -0.7500    0.0000 C   0  0
   -2.5981   -1.5000    0.0000 C   0  0
   -2.5981   -3.0000    0.0000 N   0  0
   -1.2990   -3.7500    0.0000 C   0  0
    0.0000   -3.0000    0.0000 C   0  0
    0.0000   -1.5000    0.0000 C   0  0
  2  1  1  1
  2  3  1  0
  3  4  1  0
  4  5  1  0
  5  6  2  0
  6  7  1  0
  7  8  1  0
  8  9  2  0
  9 10  1  0
 10 11  2  0
 11 12  1  0
 12 13  3  0
 11 14  1  0
 14 15  1  0
 14 16  2  0
 16  8  1  0
  7 17  2  0
 17  4  1  0
  2 18  1  0
 18 19  1  0
 19 20  2  0
 20 21  1  0
 21 22  2  0
 22 23  1  0
 23 24  2  0
 24 25  1  0
 25 26  2  0
 26 27  1  0
 27 28  2  0
 28 19  1  0
 28 23  1  0
M  END
> <assay_chembl_id>
CHEMBL4362988

> <assay_description>
Antiproliferative activity against human LNCAP expressing AR assessed as reduction in cell viability incubated for 6 days by CCK-8 assay

> <document_journal>
Eur J Med Chem

> <molecule_chembl_id>
CHEMBL4442652

> <standard_value>
870

> <IC50_uM>
0.87

> <Activity>
Yes

> <Canonical_Smiles>
C[C@@H](Cn1ccc(-c2ccc(C#N)c(Cl)c2)n1)Nc1cccc2cnccc12

$$$$

  SciTegic03142313312D

 28 31  0  0  1  0            999 V2000
    3.8964    0.7545    0.0000 C   0  0
    3.8990   -0.7455    0.0000 C   0  0  1  0  0  0
    5.2003   -1.4932    0.0000 C   0  0
    6.4990   -0.7409    0.0000 N   0  0
    7.8525   -1.3573    0.0000 C   0  0
    8.8523   -0.2391    0.0000 C   0  0
    8.0978    1.0574    0.0000 C   0  0
    8.7035    2.4305    0.0000 C   0  0
   10.1736    2.7024    0.0000 C   0  0
   10.6739    4.1165    0.0000 C   0  0
    9.6995    5.2569    0.0000 C   0  0
   10.2001    6.6718    0.0000 C   0  0
   10.7004    8.0858    0.0000 N   0  0
    8.2246    4.9832    0.0000 C   0  0
    7.2502    6.1235    0.0000 Cl  0  0
    7.7243    3.5691    0.0000 C   0  0
    6.6317    0.7404    0.0000 N   0  0
    2.6003   -1.4977    0.0000 N   0  0
    1.2990   -0.7500    0.0000 C   0  0
    1.2990    0.7500    0.0000 C   0  0
    0.0000    1.5000    0.0000 C   0  0
   -1.2990    0.7500    0.0000 C   0  0
   -1.2990   -0.7500    0.0000 C   0  0
   -2.5981   -1.5000    0.0000 C   0  0
   -2.5981   -3.0000    0.0000 C   0  0
   -1.2990   -3.7500    0.0000 C   0  0
    0.0000   -3.0000    0.0000 N   0  0
    0.0000   -1.5000    0.0000 C   0  0
  2  1  1  1
  2  3  1  0
  3  4  1  0
  4  5  1  0
  5  6  2  0
  6  7  1  0
  7  8  1  0
  8  9  2  0
  9 10  1  0
 10 11  2  0
 11 12  1  0
 12 13  3  0
 11 14  1  0
 14 15  1  0
 14 16  2  0
 16  8  1  0
  7 17  2  0
 17  4  1  0
  2 18  1  0
 18 19  1  0
 19 20  2  0
 20 21  1  0
 21 22  2  0
 22 23  1  0
 23 24  2  0
 24 25  1  0
 25 26  2  0
 26 27  1  0
 27 28  2  0
 28 19  1  0
 28 23  1  0
M  END
> <assay_chembl_id>
CHEMBL4362988

> <assay_description>
Antiproliferative activity against human LNCAP expressing AR assessed as reduction in cell viability incubated for 6 days by CCK-8 assay

> <document_journal>
Eur J Med Chem

> <molecule_chembl_id>
CHEMBL4452587

> <standard_value>
790

> <IC50_uM>
0.79

> <Activity>
Yes

> <Canonical_Smiles>
C[C@@H](Cn1ccc(-c2ccc(C#N)c(Cl)c2)n1)Nc1cccc2cccnc12

$$$$

  SciTegic03142313312D

 28 31  0  0  1  0            999 V2000
    3.8964    0.7545    0.0000 C   0  0
    3.8990   -0.7455    0.0000 C   0  0  1  0  0  0
    5.2003   -1.4932    0.0000 C   0  0
    6.4990   -0.7409    0.0000 N   0  0
    7.8525   -1.3573    0.0000 C   0  0
    8.8523   -0.2391    0.0000 C   0  0
    8.0978    1.0574    0.0000 C   0  0
    8.7035    2.4305    0.0000 C   0  0
   10.1736    2.7024    0.0000 C   0  0
   10.6739    4.1165    0.0000 C   0  0
    9.6995    5.2569    0.0000 C   0  0
   10.2001    6.6718    0.0000 C   0  0
   10.7004    8.0858    0.0000 N   0  0
    8.2246    4.9832    0.0000 C   0  0
    7.2502    6.1235    0.0000 Cl  0  0
    7.7243    3.5691    0.0000 C   0  0
    6.6317    0.7404    0.0000 N   0  0
    2.6003   -1.4977    0.0000 N   0  0
    1.2990   -0.7500    0.0000 C   0  0
    1.2990    0.7500    0.0000 N   0  0
    0.0000    1.5000    0.0000 C   0  0
   -1.2990    0.7500    0.0000 N   0  0
   -1.2990   -0.7500    0.0000 C   0  0
   -2.5981   -1.5000    0.0000 C   0  0
   -2.5981   -3.0000    0.0000 C   0  0
   -1.2990   -3.7500    0.0000 C   0  0
    0.0000   -3.0000    0.0000 C   0  0
    0.0000   -1.5000    0.0000 C   0  0
  2  1  1  1
  2  3  1  0
  3  4  1  0
  4  5  1  0
  5  6  2  0
  6  7  1  0
  7  8  1  0
  8  9  2  0
  9 10  1  0
 10 11  2  0
 11 12  1  0
 12 13  3  0
 11 14  1  0
 14 15  1  0
 14 16  2  0
 16  8  1  0
  7 17  2  0
 17  4  1  0
  2 18  1  0
 18 19  1  0
 19 20  2  0
 20 21  1  0
 21 22  2  0
 22 23  1  0
 23 24  2  0
 24 25  1  0
 25 26  2  0
 26 27  1  0
 27 28  2  0
 28 19  1  0
 28 23  1  0
M  END
> <assay_chembl_id>
CHEMBL4362988

> <assay_description>
Antiproliferative activity against human LNCAP expressing AR assessed as reduction in cell viability incubated for 6 days by CCK-8 assay

> <document_journal>
Eur J Med Chem

> <molecule_chembl_id>
CHEMBL4435083

> <standard_value>
510

> <IC50_uM>
0.51

> <Activity>
Yes

> <Canonical_Smiles>
C[C@@H](Cn1ccc(-c2ccc(C#N)c(Cl)c2)n1)Nc1ncnc2ccccc12

$$$$

  SciTegic03142313312D

 28 31  0  0  1  0            999 V2000
    3.8964    0.7545    0.0000 C   0  0
    3.8990   -0.7455    0.0000 C   0  0  2  0  0  0
    5.2003   -1.4932    0.0000 C   0  0
    6.4990   -0.7409    0.0000 N   0  0
    7.8525   -1.3573    0.0000 C   0  0
    8.8523   -0.2391    0.0000 C   0  0
    8.0978    1.0574    0.0000 C   0  0
    8.7035    2.4305    0.0000 C   0  0
   10.1736    2.7024    0.0000 C   0  0
   10.6739    4.1165    0.0000 C   0  0
    9.6995    5.2569    0.0000 C   0  0
   10.2001    6.6718    0.0000 C   0  0
   10.7004    8.0858    0.0000 N   0  0
    8.2246    4.9832    0.0000 C   0  0
    7.2502    6.1235    0.0000 Cl  0  0
    7.7243    3.5691    0.0000 C   0  0
    6.6317    0.7404    0.0000 N   0  0
    2.6003   -1.4977    0.0000 N   0  0
    1.2990   -0.7500    0.0000 C   0  0
    1.2990    0.7500    0.0000 N   0  0
    0.0000    1.5000    0.0000 C   0  0
   -1.2990    0.7500    0.0000 N   0  0
   -1.2990   -0.7500    0.0000 C   0  0
   -2.5981   -1.5000    0.0000 C   0  0
   -2.5981   -3.0000    0.0000 C   0  0
   -1.2990   -3.7500    0.0000 C   0  0
    0.0000   -3.0000    0.0000 C   0  0
    0.0000   -1.5000    0.0000 C   0  0
  2  1  1  6
  2  3  1  0
  3  4  1  0
  4  5  1  0
  5  6  2  0
  6  7  1  0
  7  8  1  0
  8  9  2  0
  9 10  1  0
 10 11  2  0
 11 12  1  0
 12 13  3  0
 11 14  1  0
 14 15  1  0
 14 16  2  0
 16  8  1  0
  7 17  2  0
 17  4  1  0
  2 18  1  0
 18 19  1  0
 19 20  2  0
 20 21  1  0
 21 22  2  0
 22 23  1  0
 23 24  2  0
 24 25  1  0
 25 26  2  0
 26 27  1  0
 27 28  2  0
 28 19  1  0
 28 23  1  0
M  END
> <assay_chembl_id>
CHEMBL4362988

> <assay_description>
Antiproliferative activity against human LNCAP expressing AR assessed as reduction in cell viability incubated for 6 days by CCK-8 assay

> <document_journal>
Eur J Med Chem

> <molecule_chembl_id>
CHEMBL4466577

> <standard_value>
970

> <IC50_uM>
0.97

> <Activity>
Yes

> <Canonical_Smiles>
C[C@H](Cn1ccc(-c2ccc(C#N)c(Cl)c2)n1)Nc1ncnc2ccccc12

$$$$

  SciTegic03142313312D

 27 30  0  0  1  0            999 V2000
    3.8964    0.7545    0.0000 C   0  0
    3.8990   -0.7455    0.0000 C   0  0  1  0  0  0
    5.2003   -1.4932    0.0000 C   0  0
    6.4990   -0.7409    0.0000 N   0  0
    7.8525   -1.3573    0.0000 C   0  0
    8.8523   -0.2391    0.0000 C   0  0
    8.0978    1.0574    0.0000 C   0  0
    8.7035    2.4305    0.0000 C   0  0
   10.1736    2.7024    0.0000 C   0  0
   10.6739    4.1165    0.0000 C   0  0
    9.6995    5.2569    0.0000 C   0  0
   10.2001    6.6718    0.0000 C   0  0
   10.7004    8.0858    0.0000 N   0  0
    8.2246    4.9832    0.0000 C   0  0
    7.2502    6.1235    0.0000 Cl  0  0
    7.7243    3.5691    0.0000 C   0  0
    6.6317    0.7404    0.0000 N   0  0
    2.6003   -1.4977    0.0000 N   0  0
    1.2990   -0.7500    0.0000 C   0  0
    1.2990    0.7500    0.0000 N   0  0
    0.0000    1.5000    0.0000 C   0  0
   -1.2990    0.7500    0.0000 N   0  0
   -1.2990   -0.7500    0.0000 C   0  0
   -2.4133   -1.7530    0.0000 N   0  0
   -1.8032   -3.1233    0.0000 C   0  0
   -0.3114   -2.9665    0.0000 N   0  0
    0.0000   -1.5000    0.0000 C   0  0
  2  1  1  1
  2  3  1  0
  3  4  1  0
  4  5  1  0
  5  6  2  0
  6  7  1  0
  7  8  1  0
  8  9  2  0
  9 10  1  0
 10 11  2  0
 11 12  1  0
 12 13  3  0
 11 14  1  0
 14 15  1  0
 14 16  2  0
 16  8  1  0
  7 17  2  0
 17  4  1  0
  2 18  1  0
 18 19  1  0
 19 20  2  0
 20 21  1  0
 21 22  2  0
 22 23  1  0
 23 24  1  0
 24 25  2  0
 25 26  1  0
 26 27  1  0
 27 19  1  0
 27 23  2  0
M  END
> <assay_chembl_id>
CHEMBL4362988

> <assay_description>
Antiproliferative activity against human LNCAP expressing AR assessed as reduction in cell viability incubated for 6 days by CCK-8 assay

> <document_journal>
Eur J Med Chem

> <molecule_chembl_id>
CHEMBL4470941

> <standard_value>
960

> <IC50_uM>
0.96

> <Activity>
Yes

> <Canonical_Smiles>
C[C@@H](Cn1ccc(-c2ccc(C#N)c(Cl)c2)n1)Nc1ncnc2nc[nH]c12

$$$$

  SciTegic03142313312D

 27 30  0  0  1  0            999 V2000
    3.8964    0.7545    0.0000 C   0  0
    3.8990   -0.7455    0.0000 C   0  0  2  0  0  0
    5.2003   -1.4932    0.0000 C   0  0
    6.4990   -0.7409    0.0000 N   0  0
    7.8525   -1.3573    0.0000 C   0  0
    8.8523   -0.2391    0.0000 C   0  0
    8.0978    1.0574    0.0000 C   0  0
    8.7035    2.4305    0.0000 C   0  0
   10.1736    2.7024    0.0000 C   0  0
   10.6739    4.1165    0.0000 C   0  0
    9.6995    5.2569    0.0000 C   0  0
   10.2001    6.6718    0.0000 C   0  0
   10.7004    8.0858    0.0000 N   0  0
    8.2246    4.9832    0.0000 C   0  0
    7.2502    6.1235    0.0000 Cl  0  0
    7.7243    3.5691    0.0000 C   0  0
    6.6317    0.7404    0.0000 N   0  0
    2.6003   -1.4977    0.0000 N   0  0
    1.2990   -0.7500    0.0000 C   0  0
    1.2990    0.7500    0.0000 N   0  0
    0.0000    1.5000    0.0000 C   0  0
   -1.2990    0.7500    0.0000 N   0  0
   -1.2990   -0.7500    0.0000 C   0  0
   -2.4133   -1.7530    0.0000 N   0  0
   -1.8032   -3.1233    0.0000 C   0  0
   -0.3114   -2.9665    0.0000 N   0  0
    0.0000   -1.5000    0.0000 C   0  0
  2  1  1  6
  2  3  1  0
  3  4  1  0
  4  5  1  0
  5  6  2  0
  6  7  1  0
  7  8  1  0
  8  9  2  0
  9 10  1  0
 10 11  2  0
 11 12  1  0
 12 13  3  0
 11 14  1  0
 14 15  1  0
 14 16  2  0
 16  8  1  0
  7 17  2  0
 17  4  1  0
  2 18  1  0
 18 19  1  0
 19 20  2  0
 20 21  1  0
 21 22  2  0
 22 23  1  0
 23 24  1  0
 24 25  2  0
 25 26  1  0
 26 27  1  0
 27 19  1  0
 27 23  2  0
M  END
> <assay_chembl_id>
CHEMBL4362988

> <assay_description>
Antiproliferative activity against human LNCAP expressing AR assessed as reduction in cell viability incubated for 6 days by CCK-8 assay

> <document_journal>
Eur J Med Chem

> <molecule_chembl_id>
CHEMBL4585044

> <standard_value>
850

> <IC50_uM>
0.85

> <Activity>
Yes

> <Canonical_Smiles>
C[C@H](Cn1ccc(-c2ccc(C#N)c(Cl)c2)n1)Nc1ncnc2nc[nH]c12

$$$$

  SciTegic03142313312D

 32 33  0  0  0  0            999 V2000
   -2.0981   -2.3660    0.0000 C   0  0
   -2.0981   -3.3660    0.0000 C   0  0  3  0  0  0
   -2.0981   -4.3660    0.0000 O   0  0
   -3.0981   -3.3660    0.0000 C   0  0
   -3.5981   -4.2320    0.0000 S   0  0
   -4.5981   -4.2320    0.0000 C   0  0
   -5.0981   -5.0981    0.0000 C   0  0
   -6.0981   -5.0981    0.0000 C   0  0
   -6.5980   -4.2321    0.0000 C   0  0
   -6.0980   -3.3660    0.0000 C   0  0
   -6.5980   -2.5000    0.0000 S   0  0
   -7.0980   -3.3660    0.0000 F   0  0
   -7.5980   -2.5000    0.0000 F   0  0
   -7.0980   -1.6340    0.0000 F   0  0
   -6.0980   -1.6340    0.0000 F   0  0
   -5.5980   -2.5000    0.0000 F   0  0
   -5.0981   -3.3660    0.0000 C   0  0
   -1.0981   -3.3660    0.0000 C   0  0
   -0.5981   -4.2321    0.0000 O   0  0
   -0.5981   -2.5000    0.0000 N   0  0
    0.4019   -2.5000    0.0000 C   0  0
    0.9019   -3.3660    0.0000 C   0  0
    1.9019   -3.3660    0.0000 C   0  0
    2.4019   -2.5000    0.0000 C   0  0
    3.4019   -2.5000    0.0000 S   0  0
    2.9019   -1.6340    0.0000 F   0  0
    3.9019   -1.6340    0.0000 F   0  0
    4.4019   -2.5000    0.0000 F   0  0
    3.9019   -3.3660    0.0000 F   0  0
    2.9019   -3.3660    0.0000 F   0  0
    1.9019   -1.6340    0.0000 C   0  0
    0.9019   -1.6340    0.0000 C   0  0
  2  1  1  4
  2  3  1  0
  2  4  1  0
  4  5  1  0
  5  6  1  0
  6  7  2  0
  7  8  1  0
  8  9  2  0
  9 10  1  0
 10 11  1  0
 11 12  1  0
 11 13  1  0
 11 14  1  0
 11 15  1  0
 11 16  1  0
 10 17  2  0
 17  6  1  0
  2 18  1  0
 18 19  2  0
 18 20  1  0
 20 21  1  0
 21 22  2  0
 22 23  1  0
 23 24  2  0
 24 25  1  0
 25 26  1  0
 25 27  1  0
 25 28  1  0
 25 29  1  0
 25 30  1  0
 24 31  1  0
 31 32  2  0
 32 21  1  0
M  END
> <assay_chembl_id>
CHEMBL4367684

> <assay_description>
Antiproliferative activity against human LNCAP cells assessed as reduction in cell growth incubated for 96 hrs by propidium iodide based 2D monolayer assay

> <document_journal>
Eur J Med Chem

> <molecule_chembl_id>
CHEMBL4548907

> <standard_value>
25000

> <IC50_uM>
25

> <Activity>
No

> <Canonical_Smiles>
CC(O)(CSc1cccc(S(F)(F)(F)(F)F)c1)C(=O)Nc1ccc(S(F)(F)(F)(F)F)cc1

$$$$

  SciTegic03142313312D

 27 28  0  0  0  0            999 V2000
   -2.0981   -2.3660    0.0000 C   0  0
   -2.0981   -3.3660    0.0000 C   0  0  3  0  0  0
   -2.0981   -4.3660    0.0000 O   0  0
   -1.0981   -3.3660    0.0000 C   0  0
   -0.5981   -2.5000    0.0000 S   0  0
    0.4019   -2.5000    0.0000 C   0  0
    0.9019   -1.6340    0.0000 C   0  0
    1.9019   -1.6340    0.0000 C   0  0
    2.4019   -2.5000    0.0000 C   0  0
    3.4019   -2.5000    0.0000 F   0  0
    1.9019   -3.3660    0.0000 C   0  0
    0.9019   -3.3660    0.0000 C   0  0
   -3.0981   -3.3660    0.0000 C   0  0
   -3.5981   -2.5000    0.0000 O   0  0
   -3.5981   -4.2320    0.0000 N   0  0
   -4.5981   -4.2320    0.0000 C   0  0
   -5.0981   -5.0981    0.0000 C   0  0
   -6.0981   -5.0981    0.0000 C   0  0
   -6.5980   -4.2321    0.0000 C   0  0
   -6.0980   -3.3660    0.0000 C   0  0
   -6.5980   -2.5000    0.0000 S   0  0
   -7.0980   -3.3660    0.0000 F   0  0
   -7.5980   -2.5000    0.0000 F   0  0
   -7.0980   -1.6340    0.0000 F   0  0
   -6.0980   -1.6340    0.0000 F   0  0
   -5.5980   -2.5000    0.0000 F   0  0
   -5.0981   -3.3660    0.0000 C   0  0
  2  1  1  4
  2  3  1  0
  2  4  1  0
  4  5  1  0
  5  6  1  0
  6  7  2  0
  7  8  1  0
  8  9  2  0
  9 10  1  0
  9 11  1  0
 11 12  2  0
 12  6  1  0
  2 13  1  0
 13 14  2  0
 13 15  1  0
 15 16  1  0
 16 17  2  0
 17 18  1  0
 18 19  2  0
 19 20  1  0
 20 21  1  0
 21 22  1  0
 21 23  1  0
 21 24  1  0
 21 25  1  0
 21 26  1  0
 20 27  2  0
 27 16  1  0
M  END
> <assay_chembl_id>
CHEMBL4367684

> <assay_description>
Antiproliferative activity against human LNCAP cells assessed as reduction in cell growth incubated for 96 hrs by propidium iodide based 2D monolayer assay

> <document_journal>
Eur J Med Chem

> <molecule_chembl_id>
CHEMBL4589651

> <standard_value>
26900

> <IC50_uM>
26.9

> <Activity>
No

> <Canonical_Smiles>
CC(O)(CSc1ccc(F)cc1)C(=O)Nc1cccc(S(F)(F)(F)(F)F)c1

$$$$

  SciTegic03142313312D

 28 29  0  0  0  0            999 V2000
    5.1937   -3.0093    0.0000 C   0  0
    3.8933   -3.7570    0.0000 C   0  0  3  0  0  0
    3.8962   -2.2570    0.0000 O   0  0
    2.5951   -3.0039    0.0000 C   0  0
    2.5973   -1.5031    0.0000 O   0  0
    1.2990   -0.7500    0.0000 C   0  0
    1.2990    0.7500    0.0000 C   0  0
    0.0000    1.5000    0.0000 C   0  0
   -1.2990    0.7500    0.0000 C   0  0
   -2.5988    1.5004    0.0000 C   0  0
   -3.8978    2.2504    0.0000 N   0  0
   -1.2990   -0.7500    0.0000 C   0  0
    0.0000   -1.5000    0.0000 C   0  0
    3.8912   -5.2578    0.0000 C   0  0
    2.5909   -6.0056    0.0000 O   0  0
    5.1894   -6.0109    0.0000 N   0  0
    5.1873   -7.5117    0.0000 C   0  0
    6.4837   -8.2663    0.0000 C   0  0
    6.4785   -9.7663    0.0000 C   0  0
    5.1769  -10.5118    0.0000 C   0  0
    5.1717  -12.0126    0.0000 C   0  0
    5.1665  -13.5126    0.0000 N   0  0
    3.8804   -9.7573    0.0000 C   0  0
    2.5781  -10.5032    0.0000 C   0  0
    2.5720  -12.0032    0.0000 F   0  0
    1.2819   -9.7483    0.0000 F   0  0
    1.2761  -11.2481    0.0000 F   0  0
    3.8856   -8.2573    0.0000 C   0  0
  2  1  1  4
  2  3  1  0
  2  4  1  0
  4  5  1  0
  5  6  1  0
  6  7  2  0
  7  8  1  0
  8  9  2  0
  9 10  1  0
 10 11  3  0
  9 12  1  0
 12 13  2  0
 13  6  1  0
  2 14  1  0
 14 15  2  0
 14 16  1  0
 16 17  1  0
 17 18  2  0
 18 19  1  0
 19 20  2  0
 20 21  1  0
 21 22  3  0
 20 23  1  0
 23 24  1  0
 24 25  1  0
 24 26  1  0
 24 27  1  0
 23 28  2  0
 28 17  1  0
M  END
> <assay_chembl_id>
CHEMBL4367684

> <assay_description>
Antiproliferative activity against human LNCAP cells assessed as reduction in cell growth incubated for 96 hrs by propidium iodide based 2D monolayer assay

> <document_journal>
Eur J Med Chem

> <molecule_chembl_id>
CHEMBL3185021

> <standard_value>
20900

> <IC50_uM>
20.9

> <Activity>
No

> <Canonical_Smiles>
CC(O)(COc1ccc(C#N)cc1)C(=O)Nc1ccc(C#N)c(C(F)(F)F)c1

$$$$

  SciTegic03142313312D

 33 34  0  0  0  0            999 V2000
    2.0981    4.3660    0.0000 C   0  0
    2.0981    5.3660    0.0000 C   0  0  3  0  0  0
    2.0981    6.3660    0.0000 O   0  0
    3.0981    5.3660    0.0000 C   0  0
    3.5981    6.2320    0.0000 O   0  0
    4.5981    6.2320    0.0000 C   0  0
    5.0981    5.3660    0.0000 C   0  0
    6.0980    5.3660    0.0000 C   0  0
    6.5980    6.2321    0.0000 C   0  0
    7.5980    6.2321    0.0000 S   0  0
    7.0980    7.0981    0.0000 F   0  0
    8.0980    7.0981    0.0000 F   0  0
    8.5980    6.2320    0.0000 F   0  0
    8.0980    5.3660    0.0000 F   0  0
    7.0980    5.3660    0.0000 F   0  0
    6.0981    7.0981    0.0000 C   0  0
    5.0981    7.0981    0.0000 C   0  0
    1.0981    5.3660    0.0000 C   0  0
    0.5981    6.2321    0.0000 O   0  0
    0.5981    4.5000    0.0000 N   0  0
   -0.4019    4.5000    0.0000 C   0  0
   -0.9019    5.3660    0.0000 C   0  0
   -1.9019    5.3660    0.0000 C   0  0
   -2.4019    4.5000    0.0000 C   0  0
   -3.4019    4.5000    0.0000 N   0  3
   -3.9019    3.6340    0.0000 O   0  0
   -3.9019    5.3660    0.0000 O   0  5
   -1.9019    3.6340    0.0000 C   0  0
   -2.4019    2.7679    0.0000 C   0  0
   -1.5359    2.2679    0.0000 F   0  0
   -2.9019    1.9019    0.0000 F   0  0
   -3.2679    3.2679    0.0000 F   0  0
   -0.9019    3.6340    0.0000 C   0  0
  2  1  1  4
  2  3  1  0
  2  4  1  0
  4  5  1  0
  5  6  1  0
  6  7  2  0
  7  8  1  0
  8  9  2  0
  9 10  1  0
 10 11  1  0
 10 12  1  0
 10 13  1  0
 10 14  1  0
 10 15  1  0
  9 16  1  0
 16 17  2  0
 17  6  1  0
  2 18  1  0
 18 19  2  0
 18 20  1  0
 20 21  1  0
 21 22  2  0
 22 23  1  0
 23 24  2  0
 24 25  1  0
 25 26  2  0
 25 27  1  0
 24 28  1  0
 28 29  1  0
 29 30  1  0
 29 31  1  0
 29 32  1  0
 28 33  2  0
 33 21  1  0
M  CHG  2  25   1  27  -1
M  END
> <assay_chembl_id>
CHEMBL4367684

> <assay_description>
Antiproliferative activity against human LNCAP cells assessed as reduction in cell growth incubated for 96 hrs by propidium iodide based 2D monolayer assay

> <document_journal>
Eur J Med Chem

> <molecule_chembl_id>
CHEMBL4467371

> <standard_value>
100000

> <IC50_uM>
100

> <Activity>
No

> <Canonical_Smiles>
CC(O)(COc1ccc(S(F)(F)(F)(F)F)cc1)C(=O)Nc1ccc([N+](=O)[O-])c(C(F)(F)F)c1

$$$$

  SciTegic03142313312D

 30 31  0  0  0  0            999 V2000
   -2.0981   -2.3660    0.0000 C   0  0
   -2.0981   -3.3660    0.0000 C   0  0  3  0  0  0
   -2.0981   -4.3660    0.0000 O   0  0
   -3.0981   -3.3660    0.0000 C   0  0
   -3.5981   -4.2320    0.0000 O   0  0
   -4.5981   -4.2320    0.0000 C   0  0
   -5.0981   -5.0981    0.0000 C   0  0
   -6.0981   -5.0981    0.0000 C   0  0
   -6.5980   -4.2321    0.0000 C   0  0
   -6.0980   -3.3660    0.0000 C   0  0
   -6.5980   -2.5000    0.0000 C   0  0
   -7.4641   -3.0000    0.0000 F   0  0
   -7.0980   -1.6340    0.0000 F   0  0
   -5.7320   -2.0000    0.0000 F   0  0
   -5.0981   -3.3660    0.0000 C   0  0
   -1.0981   -3.3660    0.0000 C   0  0
   -0.5981   -4.2321    0.0000 O   0  0
   -0.5981   -2.5000    0.0000 N   0  0
    0.4019   -2.5000    0.0000 C   0  0
    0.9019   -3.3660    0.0000 C   0  0
    1.9019   -3.3660    0.0000 C   0  0
    2.4019   -2.5000    0.0000 C   0  0
    3.4019   -2.5000    0.0000 S   0  0
    2.9019   -1.6340    0.0000 F   0  0
    3.9019   -1.6340    0.0000 F   0  0
    4.4019   -2.5000    0.0000 F   0  0
    3.9019   -3.3660    0.0000 F   0  0
    2.9019   -3.3660    0.0000 F   0  0
    1.9019   -1.6340    0.0000 C   0  0
    0.9019   -1.6340    0.0000 C   0  0
  2  1  1  4
  2  3  1  0
  2  4  1  0
  4  5  1  0
  5  6  1  0
  6  7  2  0
  7  8  1  0
  8  9  2  0
  9 10  1  0
 10 11  1  0
 11 12  1  0
 11 13  1  0
 11 14  1  0
 10 15  2  0
 15  6  1  0
  2 16  1  0
 16 17  2  0
 16 18  1  0
 18 19  1  0
 19 20  2  0
 20 21  1  0
 21 22  2  0
 22 23  1  0
 23 24  1  0
 23 25  1  0
 23 26  1  0
 23 27  1  0
 23 28  1  0
 22 29  1  0
 29 30  2  0
 30 19  1  0
M  END
> <assay_chembl_id>
CHEMBL4367684

> <assay_description>
Antiproliferative activity against human LNCAP cells assessed as reduction in cell growth incubated for 96 hrs by propidium iodide based 2D monolayer assay

> <document_journal>
Eur J Med Chem

> <molecule_chembl_id>
CHEMBL4553602

> <standard_value>
24700

> <IC50_uM>
24.7

> <Activity>
No

> <Canonical_Smiles>
CC(O)(COc1cccc(C(F)(F)F)c1)C(=O)Nc1ccc(S(F)(F)(F)(F)F)cc1

$$$$

  SciTegic03142313312D

 28 29  0  0  0  0            999 V2000
   -2.0981   -2.3660    0.0000 C   0  0
   -2.0981   -3.3660    0.0000 C   0  0  3  0  0  0
   -2.0981   -4.3660    0.0000 O   0  0
   -3.0981   -3.3660    0.0000 C   0  0
   -3.5981   -4.2320    0.0000 O   0  0
   -4.5981   -4.2320    0.0000 C   0  0
   -5.0981   -5.0981    0.0000 C   0  0
   -6.0981   -5.0981    0.0000 C   0  0
   -6.5980   -4.2321    0.0000 C   0  0
   -7.5980   -4.2321    0.0000 C   0  0
   -8.5980   -4.2320    0.0000 N   0  0
   -6.0980   -3.3660    0.0000 C   0  0
   -5.0981   -3.3660    0.0000 C   0  0
   -1.0981   -3.3660    0.0000 C   0  0
   -0.5981   -4.2321    0.0000 O   0  0
   -0.5981   -2.5000    0.0000 N   0  0
    0.4019   -2.5000    0.0000 C   0  0
    0.9019   -3.3660    0.0000 C   0  0
    1.9019   -3.3660    0.0000 C   0  0
    2.4019   -2.5000    0.0000 C   0  0
    3.4019   -2.5000    0.0000 S   0  0
    2.9019   -1.6340    0.0000 F   0  0
    3.9019   -1.6340    0.0000 F   0  0
    4.4019   -2.5000    0.0000 F   0  0
    3.9019   -3.3660    0.0000 F   0  0
    2.9019   -3.3660    0.0000 F   0  0
    1.9019   -1.6340    0.0000 C   0  0
    0.9019   -1.6340    0.0000 C   0  0
  2  1  1  4
  2  3  1  0
  2  4  1  0
  4  5  1  0
  5  6  1  0
  6  7  2  0
  7  8  1  0
  8  9  2  0
  9 10  1  0
 10 11  3  0
  9 12  1  0
 12 13  2  0
 13  6  1  0
  2 14  1  0
 14 15  2  0
 14 16  1  0
 16 17  1  0
 17 18  2  0
 18 19  1  0
 19 20  2  0
 20 21  1  0
 21 22  1  0
 21 23  1  0
 21 24  1  0
 21 25  1  0
 21 26  1  0
 20 27  1  0
 27 28  2  0
 28 17  1  0
M  END
> <assay_chembl_id>
CHEMBL4367684

> <assay_description>
Antiproliferative activity against human LNCAP cells assessed as reduction in cell growth incubated for 96 hrs by propidium iodide based 2D monolayer assay

> <document_journal>
Eur J Med Chem

> <molecule_chembl_id>
CHEMBL4551430

> <standard_value>
100000

> <IC50_uM>
100

> <Activity>
No

> <Canonical_Smiles>
CC(O)(COc1ccc(C#N)cc1)C(=O)Nc1ccc(S(F)(F)(F)(F)F)cc1

$$$$

  SciTegic03142313312D

 32 33  0  0  0  0            999 V2000
   -2.0981   -2.3660    0.0000 C   0  0
   -2.0981   -3.3660    0.0000 C   0  0  3  0  0  0
   -2.0981   -4.3660    0.0000 O   0  0
   -3.0981   -3.3660    0.0000 C   0  0
   -3.5981   -4.2320    0.0000 O   0  0
   -4.5981   -4.2320    0.0000 C   0  0
   -5.0981   -5.0981    0.0000 C   0  0
   -6.0981   -5.0981    0.0000 C   0  0
   -6.5980   -4.2321    0.0000 C   0  0
   -7.5980   -4.2321    0.0000 C   0  0
   -8.5980   -4.2320    0.0000 N   0  0
   -6.0980   -3.3660    0.0000 C   0  0
   -5.0981   -3.3660    0.0000 C   0  0
   -4.5981   -2.5000    0.0000 C   0  0
   -5.4641   -2.0000    0.0000 F   0  0
   -4.0981   -1.6340    0.0000 F   0  0
   -3.7320   -3.0000    0.0000 F   0  0
   -1.0981   -3.3660    0.0000 C   0  0
   -0.5981   -4.2321    0.0000 O   0  0
   -0.5981   -2.5000    0.0000 N   0  0
    0.4019   -2.5000    0.0000 C   0  0
    0.9019   -3.3660    0.0000 C   0  0
    1.9019   -3.3660    0.0000 C   0  0
    2.4019   -2.5000    0.0000 C   0  0
    3.4019   -2.5000    0.0000 S   0  0
    2.9019   -1.6340    0.0000 F   0  0
    3.9019   -1.6340    0.0000 F   0  0
    4.4019   -2.5000    0.0000 F   0  0
    3.9019   -3.3660    0.0000 F   0  0
    2.9019   -3.3660    0.0000 F   0  0
    1.9019   -1.6340    0.0000 C   0  0
    0.9019   -1.6340    0.0000 C   0  0
  2  1  1  4
  2  3  1  0
  2  4  1  0
  4  5  1  0
  5  6  1  0
  6  7  2  0
  7  8  1  0
  8  9  2  0
  9 10  1  0
 10 11  3  0
  9 12  1  0
 12 13  2  0
 13  6  1  0
 13 14  1  0
 14 15  1  0
 14 16  1  0
 14 17  1  0
  2 18  1  0
 18 19  2  0
 18 20  1  0
 20 21  1  0
 21 22  2  0
 22 23  1  0
 23 24  2  0
 24 25  1  0
 25 26  1  0
 25 27  1  0
 25 28  1  0
 25 29  1  0
 25 30  1  0
 24 31  1  0
 31 32  2  0
 32 21  1  0
M  END
> <assay_chembl_id>
CHEMBL4367684

> <assay_description>
Antiproliferative activity against human LNCAP cells assessed as reduction in cell growth incubated for 96 hrs by propidium iodide based 2D monolayer assay

> <document_journal>
Eur J Med Chem

> <molecule_chembl_id>
CHEMBL4585315

> <standard_value>
100000

> <IC50_uM>
100

> <Activity>
No

> <Canonical_Smiles>
CC(O)(COc1ccc(C#N)cc1C(F)(F)F)C(=O)Nc1ccc(S(F)(F)(F)(F)F)cc1

$$$$

  SciTegic03142313312D

 29 30  0  0  0  0            999 V2000
   -2.0981   -2.3660    0.0000 C   0  0
   -2.0981   -3.3660    0.0000 C   0  0  3  0  0  0
   -2.0981   -4.3660    0.0000 O   0  0
   -3.0981   -3.3660    0.0000 C   0  0
   -3.5981   -4.2320    0.0000 O   0  0
   -4.5981   -4.2320    0.0000 C   0  0
   -5.0981   -5.0981    0.0000 C   0  0
   -6.0981   -5.0981    0.0000 C   0  0
   -6.5980   -4.2321    0.0000 C   0  0
   -7.5980   -4.2321    0.0000 C   0  0
   -8.5980   -4.2320    0.0000 N   0  0
   -6.0980   -3.3660    0.0000 C   0  0
   -6.5980   -2.5000    0.0000 F   0  0
   -5.0981   -3.3660    0.0000 C   0  0
   -1.0981   -3.3660    0.0000 C   0  0
   -0.5981   -4.2321    0.0000 O   0  0
   -0.5981   -2.5000    0.0000 N   0  0
    0.4019   -2.5000    0.0000 C   0  0
    0.9019   -3.3660    0.0000 C   0  0
    1.9019   -3.3660    0.0000 C   0  0
    2.4019   -2.5000    0.0000 C   0  0
    3.4019   -2.5000    0.0000 S   0  0
    2.9019   -1.6340    0.0000 F   0  0
    3.9019   -1.6340    0.0000 F   0  0
    4.4019   -2.5000    0.0000 F   0  0
    3.9019   -3.3660    0.0000 F   0  0
    2.9019   -3.3660    0.0000 F   0  0
    1.9019   -1.6340    0.0000 C   0  0
    0.9019   -1.6340    0.0000 C   0  0
  2  1  1  4
  2  3  1  0
  2  4  1  0
  4  5  1  0
  5  6  1  0
  6  7  2  0
  7  8  1  0
  8  9  2  0
  9 10  1  0
 10 11  3  0
  9 12  1  0
 12 13  1  0
 12 14  2  0
 14  6  1  0
  2 15  1  0
 15 16  2  0
 15 17  1  0
 17 18  1  0
 18 19  2  0
 19 20  1  0
 20 21  2  0
 21 22  1  0
 22 23  1  0
 22 24  1  0
 22 25  1  0
 22 26  1  0
 22 27  1  0
 21 28  1  0
 28 29  2  0
 29 18  1  0
M  END
> <assay_chembl_id>
CHEMBL4367684

> <assay_description>
Antiproliferative activity against human LNCAP cells assessed as reduction in cell growth incubated for 96 hrs by propidium iodide based 2D monolayer assay

> <document_journal>
Eur J Med Chem

> <molecule_chembl_id>
CHEMBL4576275

> <standard_value>
100000

> <IC50_uM>
100

> <Activity>
No

> <Canonical_Smiles>
CC(O)(COc1ccc(C#N)c(F)c1)C(=O)Nc1ccc(S(F)(F)(F)(F)F)cc1

$$$$

  SciTegic03142313312D

 30 31  0  0  0  0            999 V2000
   -2.0981   -2.3660    0.0000 C   0  0
   -2.0981   -3.3660    0.0000 C   0  0  3  0  0  0
   -2.0981   -4.3660    0.0000 O   0  0
   -1.0981   -3.3660    0.0000 C   0  0
   -0.5981   -2.5000    0.0000 O   0  0
    0.4019   -2.5000    0.0000 C   0  0
    0.9019   -1.6340    0.0000 C   0  0
    1.9019   -1.6340    0.0000 C   0  0
    2.4019   -2.5000    0.0000 C   0  0
    1.9019   -3.3660    0.0000 C   0  0
    2.4019   -4.2320    0.0000 C   0  0
    3.2679   -3.7320    0.0000 F   0  0
    2.9019   -5.0980    0.0000 F   0  0
    1.5359   -4.7320    0.0000 F   0  0
    0.9019   -3.3660    0.0000 C   0  0
   -3.0981   -3.3660    0.0000 C   0  0
   -3.5981   -2.5000    0.0000 O   0  0
   -3.5981   -4.2320    0.0000 N   0  0
   -4.5981   -4.2320    0.0000 C   0  0
   -5.0981   -5.0981    0.0000 C   0  0
   -6.0981   -5.0981    0.0000 C   0  0
   -6.5980   -4.2321    0.0000 C   0  0
   -6.0980   -3.3660    0.0000 C   0  0
   -6.5980   -2.5000    0.0000 S   0  0
   -7.0980   -3.3660    0.0000 F   0  0
   -7.5980   -2.5000    0.0000 F   0  0
   -7.0980   -1.6340    0.0000 F   0  0
   -6.0980   -1.6340    0.0000 F   0  0
   -5.5980   -2.5000    0.0000 F   0  0
   -5.0981   -3.3660    0.0000 C   0  0
  2  1  1  4
  2  3  1  0
  2  4  1  0
  4  5  1  0
  5  6  1  0
  6  7  2  0
  7  8  1  0
  8  9  2  0
  9 10  1  0
 10 11  1  0
 11 12  1  0
 11 13  1  0
 11 14  1  0
 10 15  2  0
 15  6  1  0
  2 16  1  0
 16 17  2  0
 16 18  1  0
 18 19  1  0
 19 20  2  0
 20 21  1  0
 21 22  2  0
 22 23  1  0
 23 24  1  0
 24 25  1  0
 24 26  1  0
 24 27  1  0
 24 28  1  0
 24 29  1  0
 23 30  2  0
 30 19  1  0
M  END
> <assay_chembl_id>
CHEMBL4367684

> <assay_description>
Antiproliferative activity against human LNCAP cells assessed as reduction in cell growth incubated for 96 hrs by propidium iodide based 2D monolayer assay

> <document_journal>
Eur J Med Chem

> <molecule_chembl_id>
CHEMBL4525832

> <standard_value>
28800

> <IC50_uM>
28.8

> <Activity>
No

> <Canonical_Smiles>
CC(O)(COc1cccc(C(F)(F)F)c1)C(=O)Nc1cccc(S(F)(F)(F)(F)F)c1

$$$$

  SciTegic03142313312D

 30 31  0  0  0  0            999 V2000
    3.9641    0.8660    0.0000 C   0  0
    3.4641    0.0000    0.0000 C   0  0  3  0  0  0
    2.9641   -0.8660    0.0000 O   0  0
    2.5981    0.5000    0.0000 C   0  0
    1.7320    0.0000    0.0000 O   0  0
    0.8660    0.5000    0.0000 C   0  0
    0.8660    1.5000    0.0000 C   0  0
    0.0000    2.0000    0.0000 C   0  0
   -0.8660    1.5000    0.0000 C   0  0
   -0.8660    0.5000    0.0000 C   0  0
    0.0000    0.0000    0.0000 C   0  0
    0.0000   -1.0000    0.0000 C   0  0
    1.0000   -1.0000    0.0000 F   0  0
    0.0000   -2.0000    0.0000 F   0  0
   -1.0000   -1.0000    0.0000 F   0  0
    4.3301   -0.5000    0.0000 C   0  0
    4.3301   -1.5000    0.0000 O   0  0
    5.1961    0.0000    0.0000 N   0  0
    6.0622   -0.5000    0.0000 C   0  0
    6.9282    0.0000    0.0000 C   0  0
    7.7942   -0.4999    0.0000 C   0  0
    7.7942   -1.4999    0.0000 C   0  0
    6.9282   -1.9999    0.0000 C   0  0
    6.9282   -2.9999    0.0000 S   0  0
    7.7942   -2.4999    0.0000 F   0  0
    7.7942   -3.4999    0.0000 F   0  0
    6.9282   -3.9999    0.0000 F   0  0
    6.0622   -3.4999    0.0000 F   0  0
    6.0622   -2.4999    0.0000 F   0  0
    6.0622   -1.4999    0.0000 C   0  0
  2  1  1  4
  2  3  1  0
  2  4  1  0
  4  5  1  0
  5  6  1  0
  6  7  2  0
  7  8  1  0
  8  9  2  0
  9 10  1  0
 10 11  2  0
 11  6  1  0
 11 12  1  0
 12 13  1  0
 12 14  1  0
 12 15  1  0
  2 16  1  0
 16 17  2  0
 16 18  1  0
 18 19  1  0
 19 20  2  0
 20 21  1  0
 21 22  2  0
 22 23  1  0
 23 24  1  0
 24 25  1  0
 24 26  1  0
 24 27  1  0
 24 28  1  0
 24 29  1  0
 23 30  2  0
 30 19  1  0
M  END
> <assay_chembl_id>
CHEMBL4367684

> <assay_description>
Antiproliferative activity against human LNCAP cells assessed as reduction in cell growth incubated for 96 hrs by propidium iodide based 2D monolayer assay

> <document_journal>
Eur J Med Chem

> <molecule_chembl_id>
CHEMBL4552358

> <standard_value>
26300

> <IC50_uM>
26.3

> <Activity>
No

> <Canonical_Smiles>
CC(O)(COc1ccccc1C(F)(F)F)C(=O)Nc1cccc(S(F)(F)(F)(F)F)c1

$$$$

  SciTegic03142313312D

 28 29  0  0  0  0            999 V2000
   -2.0981   -2.3660    0.0000 C   0  0
   -2.0981   -3.3660    0.0000 C   0  0  3  0  0  0
   -2.0981   -4.3660    0.0000 O   0  0
   -1.0981   -3.3660    0.0000 C   0  0
   -0.5981   -2.5000    0.0000 O   0  0
    0.4019   -2.5000    0.0000 C   0  0
    0.9019   -1.6340    0.0000 C   0  0
    1.9019   -1.6340    0.0000 C   0  0
    2.4019   -2.5000    0.0000 C   0  0
    3.4019   -2.5000    0.0000 C   0  0
    4.4019   -2.5000    0.0000 N   0  0
    1.9019   -3.3660    0.0000 C   0  0
    0.9019   -3.3660    0.0000 C   0  0
   -3.0981   -3.3660    0.0000 C   0  0
   -3.5981   -2.5000    0.0000 O   0  0
   -3.5981   -4.2320    0.0000 N   0  0
   -4.5981   -4.2320    0.0000 C   0  0
   -5.0981   -5.0981    0.0000 C   0  0
   -6.0981   -5.0981    0.0000 C   0  0
   -6.5980   -4.2321    0.0000 C   0  0
   -6.0980   -3.3660    0.0000 C   0  0
   -6.5980   -2.5000    0.0000 S   0  0
   -7.0980   -3.3660    0.0000 F   0  0
   -7.5980   -2.5000    0.0000 F   0  0
   -7.0980   -1.6340    0.0000 F   0  0
   -6.0980   -1.6340    0.0000 F   0  0
   -5.5980   -2.5000    0.0000 F   0  0
   -5.0981   -3.3660    0.0000 C   0  0
  2  1  1  4
  2  3  1  0
  2  4  1  0
  4  5  1  0
  5  6  1  0
  6  7  2  0
  7  8  1  0
  8  9  2  0
  9 10  1  0
 10 11  3  0
  9 12  1  0
 12 13  2  0
 13  6  1  0
  2 14  1  0
 14 15  2  0
 14 16  1  0
 16 17  1  0
 17 18  2  0
 18 19  1  0
 19 20  2  0
 20 21  1  0
 21 22  1  0
 22 23  1  0
 22 24  1  0
 22 25  1  0
 22 26  1  0
 22 27  1  0
 21 28  2  0
 28 17  1  0
M  END
> <assay_chembl_id>
CHEMBL4367684

> <assay_description>
Antiproliferative activity against human LNCAP cells assessed as reduction in cell growth incubated for 96 hrs by propidium iodide based 2D monolayer assay

> <document_journal>
Eur J Med Chem

> <molecule_chembl_id>
CHEMBL4436003

> <standard_value>
30000

> <IC50_uM>
30

> <Activity>
No

> <Canonical_Smiles>
CC(O)(COc1ccc(C#N)cc1)C(=O)Nc1cccc(S(F)(F)(F)(F)F)c1

$$$$

  SciTegic03142313312D

 29 30  0  0  0  0            999 V2000
   -2.0981   -2.3660    0.0000 C   0  0
   -2.0981   -3.3660    0.0000 C   0  0  3  0  0  0
   -2.0981   -4.3660    0.0000 O   0  0
   -1.0981   -3.3660    0.0000 C   0  0
   -0.5981   -2.5000    0.0000 O   0  0
    0.4019   -2.5000    0.0000 C   0  0
    0.9019   -1.6340    0.0000 C   0  0
    1.9019   -1.6340    0.0000 C   0  0
    2.4019   -2.5000    0.0000 C   0  0
    3.4019   -2.5000    0.0000 C   0  0
    4.4019   -2.5000    0.0000 N   0  0
    1.9019   -3.3660    0.0000 C   0  0
    2.4019   -4.2320    0.0000 F   0  0
    0.9019   -3.3660    0.0000 C   0  0
   -3.0981   -3.3660    0.0000 C   0  0
   -3.5981   -2.5000    0.0000 O   0  0
   -3.5981   -4.2320    0.0000 N   0  0
   -4.5981   -4.2320    0.0000 C   0  0
   -5.0981   -5.0981    0.0000 C   0  0
   -6.0981   -5.0981    0.0000 C   0  0
   -6.5980   -4.2321    0.0000 C   0  0
   -6.0980   -3.3660    0.0000 C   0  0
   -6.5980   -2.5000    0.0000 S   0  0
   -7.0980   -3.3660    0.0000 F   0  0
   -7.5980   -2.5000    0.0000 F   0  0
   -7.0980   -1.6340    0.0000 F   0  0
   -6.0980   -1.6340    0.0000 F   0  0
   -5.5980   -2.5000    0.0000 F   0  0
   -5.0981   -3.3660    0.0000 C   0  0
  2  1  1  4
  2  3  1  0
  2  4  1  0
  4  5  1  0
  5  6  1  0
  6  7  2  0
  7  8  1  0
  8  9  2  0
  9 10  1  0
 10 11  3  0
  9 12  1  0
 12 13  1  0
 12 14  2  0
 14  6  1  0
  2 15  1  0
 15 16  2  0
 15 17  1  0
 17 18  1  0
 18 19  2  0
 19 20  1  0
 20 21  2  0
 21 22  1  0
 22 23  1  0
 23 24  1  0
 23 25  1  0
 23 26  1  0
 23 27  1  0
 23 28  1  0
 22 29  2  0
 29 18  1  0
M  END
> <assay_chembl_id>
CHEMBL4367684

> <assay_description>
Antiproliferative activity against human LNCAP cells assessed as reduction in cell growth incubated for 96 hrs by propidium iodide based 2D monolayer assay

> <document_journal>
Eur J Med Chem

> <molecule_chembl_id>
CHEMBL4450371

> <standard_value>
83700

> <IC50_uM>
83.7

> <Activity>
No

> <Canonical_Smiles>
CC(O)(COc1ccc(C#N)c(F)c1)C(=O)Nc1cccc(S(F)(F)(F)(F)F)c1

$$$$

  SciTegic03142313312D

 34 35  0  0  0  0            999 V2000
    2.0981    4.3660    0.0000 C   0  0
    2.5981    3.5000    0.0000 C   0  0  3  0  0  0
    3.0981    2.6340    0.0000 O   0  0
    3.4641    4.0000    0.0000 C   0  0
    4.3301    3.5000    0.0000 S   0  0
    4.8301    4.3660    0.0000 O   0  0
    3.8301    2.6340    0.0000 O   0  0
    5.1961    3.0000    0.0000 C   0  0
    5.1961    2.0000    0.0000 C   0  0
    6.0621    1.5000    0.0000 C   0  0
    6.9282    2.0000    0.0000 C   0  0
    7.7942    1.5000    0.0000 S   0  0
    7.7942    2.5000    0.0000 F   0  0
    8.6602    2.0000    0.0000 F   0  0
    8.6602    1.0000    0.0000 F   0  0
    7.7942    0.5000    0.0000 F   0  0
    6.9282    1.0000    0.0000 F   0  0
    6.9282    3.0000    0.0000 C   0  0
    6.0622    3.5000    0.0000 C   0  0
    1.7320    3.0000    0.0000 C   0  0
    0.8660    3.5000    0.0000 O   0  0
    1.7320    2.0000    0.0000 N   0  0
    0.8660    1.5000    0.0000 C   0  0
    0.0000    2.0000    0.0000 C   0  0
   -0.8660    1.5000    0.0000 C   0  0
   -0.8660    0.5000    0.0000 C   0  0
   -1.7320    0.0000    0.0000 S   0  0
   -0.8660   -0.5000    0.0000 F   0  0
   -1.7320   -1.0000    0.0000 F   0  0
   -2.5981   -0.5000    0.0000 F   0  0
   -2.5981    0.5000    0.0000 F   0  0
   -1.7320    1.0000    0.0000 F   0  0
    0.0000    0.0000    0.0000 C   0  0
    0.8660    0.5000    0.0000 C   0  0
  2  1  1  4
  2  3  1  0
  2  4  1  0
  4  5  1  0
  5  6  2  0
  5  7  2  0
  5  8  1  0
  8  9  2  0
  9 10  1  0
 10 11  2  0
 11 12  1  0
 12 13  1  0
 12 14  1  0
 12 15  1  0
 12 16  1  0
 12 17  1  0
 11 18  1  0
 18 19  2  0
 19  8  1  0
  2 20  1  0
 20 21  2  0
 20 22  1  0
 22 23  1  0
 23 24  2  0
 24 25  1  0
 25 26  2  0
 26 27  1  0
 27 28  1  0
 27 29  1  0
 27 30  1  0
 27 31  1  0
 27 32  1  0
 26 33  1  0
 33 34  2  0
 34 23  1  0
M  END
> <assay_chembl_id>
CHEMBL4367684

> <assay_description>
Antiproliferative activity against human LNCAP cells assessed as reduction in cell growth incubated for 96 hrs by propidium iodide based 2D monolayer assay

> <document_journal>
Eur J Med Chem

> <molecule_chembl_id>
CHEMBL4550957

> <standard_value>
29200

> <IC50_uM>
29.2

> <Activity>
No

> <Canonical_Smiles>
CC(O)(CS(=O)(=O)c1ccc(S(F)(F)(F)(F)F)cc1)C(=O)Nc1ccc(S(F)(F)(F)(F)F)cc1

$$$$

  SciTegic03142313312D

 34 35  0  0  0  0            999 V2000
   -3.9641   -0.8660    0.0000 C   0  0
   -3.4641    0.0000    0.0000 C   0  0  3  0  0  0
   -2.9641    0.8660    0.0000 O   0  0
   -2.5981   -0.5000    0.0000 C   0  0
   -1.7320    0.0000    0.0000 S   0  0
   -1.2320   -0.8660    0.0000 O   0  0
   -2.2320    0.8660    0.0000 O   0  0
   -0.8660    0.5000    0.0000 C   0  0
   -0.8660    1.5000    0.0000 C   0  0
    0.0000    2.0000    0.0000 C   0  0
    0.8660    1.5000    0.0000 C   0  0
    0.8660    0.5000    0.0000 C   0  0
    1.7320    0.0000    0.0000 S   0  0
    1.7320    1.0000    0.0000 F   0  0
    2.5981    0.5000    0.0000 F   0  0
    2.5981   -0.5000    0.0000 F   0  0
    1.7320   -1.0000    0.0000 F   0  0
    0.8660   -0.5000    0.0000 F   0  0
    0.0000    0.0000    0.0000 C   0  0
   -4.3301    0.5000    0.0000 C   0  0
   -4.3301    1.5000    0.0000 O   0  0
   -5.1961    0.0000    0.0000 N   0  0
   -6.0622    0.5000    0.0000 C   0  0
   -6.0621    1.5000    0.0000 C   0  0
   -6.9282    2.0000    0.0000 C   0  0
   -7.7942    1.5000    0.0000 C   0  0
   -8.6602    2.0000    0.0000 S   0  0
   -8.6602    1.0000    0.0000 F   0  0
   -9.5262    1.5000    0.0000 F   0  0
   -9.5262    2.5000    0.0000 F   0  0
   -8.6602    3.0000    0.0000 F   0  0
   -7.7942    2.5000    0.0000 F   0  0
   -7.7942    0.5000    0.0000 C   0  0
   -6.9282    0.0000    0.0000 C   0  0
  2  1  1  4
  2  3  1  0
  2  4  1  0
  4  5  1  0
  5  6  2  0
  5  7  2  0
  5  8  1  0
  8  9  2  0
  9 10  1  0
 10 11  2  0
 11 12  1  0
 12 13  1  0
 13 14  1  0
 13 15  1  0
 13 16  1  0
 13 17  1  0
 13 18  1  0
 12 19  2  0
 19  8  1  0
  2 20  1  0
 20 21  2  0
 20 22  1  0
 22 23  1  0
 23 24  2  0
 24 25  1  0
 25 26  2  0
 26 27  1  0
 27 28  1  0
 27 29  1  0
 27 30  1  0
 27 31  1  0
 27 32  1  0
 26 33  1  0
 33 34  2  0
 34 23  1  0
M  END
> <assay_chembl_id>
CHEMBL4367684

> <assay_description>
Antiproliferative activity against human LNCAP cells assessed as reduction in cell growth incubated for 96 hrs by propidium iodide based 2D monolayer assay

> <document_journal>
Eur J Med Chem

> <molecule_chembl_id>
CHEMBL4457017

> <standard_value>
31300

> <IC50_uM>
31.3

> <Activity>
No

> <Canonical_Smiles>
CC(O)(CS(=O)(=O)c1cccc(S(F)(F)(F)(F)F)c1)C(=O)Nc1ccc(S(F)(F)(F)(F)F)cc1

$$$$

  SciTegic03142313312D

 32 33  0  0  0  0            999 V2000
    2.0981    4.3660    0.0000 C   0  0
    2.5981    3.5000    0.0000 C   0  0  3  0  0  0
    3.0981    2.6340    0.0000 O   0  0
    3.4641    4.0000    0.0000 C   0  0
    4.3301    3.5000    0.0000 S   0  0
    4.8301    4.3660    0.0000 O   0  0
    3.8301    2.6340    0.0000 O   0  0
    5.1961    3.0000    0.0000 C   0  0
    6.0622    3.5000    0.0000 C   0  0
    6.9282    3.0000    0.0000 C   0  0
    6.9282    2.0000    0.0000 C   0  0
    7.7942    1.5000    0.0000 C   0  0
    8.2942    2.3660    0.0000 F   0  0
    8.6602    1.0000    0.0000 F   0  0
    7.2942    0.6340    0.0000 F   0  0
    6.0621    1.5000    0.0000 C   0  0
    5.1961    2.0000    0.0000 C   0  0
    1.7320    3.0000    0.0000 C   0  0
    0.8660    3.5000    0.0000 O   0  0
    1.7320    2.0000    0.0000 N   0  0
    0.8660    1.5000    0.0000 C   0  0
    0.0000    2.0000    0.0000 C   0  0
   -0.8660    1.5000    0.0000 C   0  0
   -0.8660    0.5000    0.0000 C   0  0
   -1.7320    0.0000    0.0000 S   0  0
   -0.8660   -0.5000    0.0000 F   0  0
   -1.7320   -1.0000    0.0000 F   0  0
   -2.5981   -0.5000    0.0000 F   0  0
   -2.5981    0.5000    0.0000 F   0  0
   -1.7320    1.0000    0.0000 F   0  0
    0.0000    0.0000    0.0000 C   0  0
    0.8660    0.5000    0.0000 C   0  0
  2  1  1  4
  2  3  1  0
  2  4  1  0
  4  5  1  0
  5  6  2  0
  5  7  2  0
  5  8  1  0
  8  9  2  0
  9 10  1  0
 10 11  2  0
 11 12  1  0
 12 13  1  0
 12 14  1  0
 12 15  1  0
 11 16  1  0
 16 17  2  0
 17  8  1  0
  2 18  1  0
 18 19  2  0
 18 20  1  0
 20 21  1  0
 21 22  2  0
 22 23  1  0
 23 24  2  0
 24 25  1  0
 25 26  1  0
 25 27  1  0
 25 28  1  0
 25 29  1  0
 25 30  1  0
 24 31  1  0
 31 32  2  0
 32 21  1  0
M  END
> <assay_chembl_id>
CHEMBL4367684

> <assay_description>
Antiproliferative activity against human LNCAP cells assessed as reduction in cell growth incubated for 96 hrs by propidium iodide based 2D monolayer assay

> <document_journal>
Eur J Med Chem

> <molecule_chembl_id>
CHEMBL4463808

> <standard_value>
20700

> <IC50_uM>
20.7

> <Activity>
No

> <Canonical_Smiles>
CC(O)(CS(=O)(=O)c1ccc(C(F)(F)F)cc1)C(=O)Nc1ccc(S(F)(F)(F)(F)F)cc1

$$$$

  SciTegic03142313312D

 32 33  0  0  0  0            999 V2000
    2.9641    0.8660    0.0000 C   0  0
    3.4641    0.0000    0.0000 C   0  0  3  0  0  0
    3.9641   -0.8660    0.0000 O   0  0
    2.5981   -0.5000    0.0000 C   0  0
    1.7320    0.0000    0.0000 S   0  0
    2.2320    0.8660    0.0000 O   0  0
    1.2320   -0.8660    0.0000 O   0  0
    0.8660    0.5000    0.0000 C   0  0
    0.8660    1.5000    0.0000 C   0  0
    0.0000    2.0000    0.0000 C   0  0
   -0.8660    1.5000    0.0000 C   0  0
   -0.8660    0.5000    0.0000 C   0  0
   -1.7320    0.0000    0.0000 C   0  0
   -1.2320   -0.8660    0.0000 F   0  0
   -2.5981   -0.5000    0.0000 F   0  0
   -2.2320    0.8660    0.0000 F   0  0
    0.0000    0.0000    0.0000 C   0  0
    4.3301    0.5000    0.0000 C   0  0
    4.3301    1.5000    0.0000 O   0  0
    5.1961    0.0000    0.0000 N   0  0
    6.0622    0.5000    0.0000 C   0  0
    6.9282    0.0000    0.0000 C   0  0
    7.7942    0.5001    0.0000 C   0  0
    7.7941    1.5001    0.0000 C   0  0
    8.6602    2.0001    0.0000 S   0  0
    7.7941    2.5001    0.0000 F   0  0
    8.6602    3.0001    0.0000 F   0  0
    9.5262    2.5001    0.0000 F   0  0
    9.5262    1.5001    0.0000 F   0  0
    8.6602    1.0001    0.0000 F   0  0
    6.9281    2.0000    0.0000 C   0  0
    6.0621    1.5000    0.0000 C   0  0
  2  1  1  4
  2  3  1  0
  2  4  1  0
  4  5  1  0
  5  6  2  0
  5  7  2  0
  5  8  1  0
  8  9  2  0
  9 10  1  0
 10 11  2  0
 11 12  1  0
 12 13  1  0
 13 14  1  0
 13 15  1  0
 13 16  1  0
 12 17  2  0
 17  8  1  0
  2 18  1  0
 18 19  2  0
 18 20  1  0
 20 21  1  0
 21 22  2  0
 22 23  1  0
 23 24  2  0
 24 25  1  0
 25 26  1  0
 25 27  1  0
 25 28  1  0
 25 29  1  0
 25 30  1  0
 24 31  1  0
 31 32  2  0
 32 21  1  0
M  END
> <assay_chembl_id>
CHEMBL4367684

> <assay_description>
Antiproliferative activity against human LNCAP cells assessed as reduction in cell growth incubated for 96 hrs by propidium iodide based 2D monolayer assay

> <document_journal>
Eur J Med Chem

> <molecule_chembl_id>
CHEMBL4452812

> <standard_value>
21000

> <IC50_uM>
21

> <Activity>
No

> <Canonical_Smiles>
CC(O)(CS(=O)(=O)c1cccc(C(F)(F)F)c1)C(=O)Nc1ccc(S(F)(F)(F)(F)F)cc1

$$$$

  SciTegic03142313312D

 33 34  0  0  0  0            999 V2000
    2.0981    4.3660    0.0000 C   0  0
    2.5981    3.5000    0.0000 C   0  0  3  0  0  0
    3.0981    2.6340    0.0000 O   0  0
    3.4641    4.0000    0.0000 C   0  0
    4.3301    3.5000    0.0000 S   0  0
    4.8301    4.3660    0.0000 O   0  0
    3.8301    2.6340    0.0000 O   0  0
    5.1961    3.0000    0.0000 C   0  0
    6.0622    3.5000    0.0000 C   0  0
    6.9282    3.0000    0.0000 C   0  0
    6.9282    2.0000    0.0000 C   0  0
    7.7942    1.5000    0.0000 O   0  0
    7.7942    0.5000    0.0000 C   0  0
    8.7942    0.5000    0.0000 F   0  0
    7.7942   -0.5000    0.0000 F   0  0
    6.7942    0.5000    0.0000 F   0  0
    6.0621    1.5000    0.0000 C   0  0
    5.1961    2.0000    0.0000 C   0  0
    1.7320    3.0000    0.0000 C   0  0
    0.8660    3.5000    0.0000 O   0  0
    1.7320    2.0000    0.0000 N   0  0
    0.8660    1.5000    0.0000 C   0  0
    0.0000    2.0000    0.0000 C   0  0
   -0.8660    1.5000    0.0000 C   0  0
   -0.8660    0.5000    0.0000 C   0  0
   -1.7320    0.0000    0.0000 S   0  0
   -0.8660   -0.5000    0.0000 F   0  0
   -1.7320   -1.0000    0.0000 F   0  0
   -2.5981   -0.5000    0.0000 F   0  0
   -2.5981    0.5000    0.0000 F   0  0
   -1.7320    1.0000    0.0000 F   0  0
    0.0000    0.0000    0.0000 C   0  0
    0.8660    0.5000    0.0000 C   0  0
  2  1  1  4
  2  3  1  0
  2  4  1  0
  4  5  1  0
  5  6  2  0
  5  7  2  0
  5  8  1  0
  8  9  2  0
  9 10  1  0
 10 11  2  0
 11 12  1  0
 12 13  1  0
 13 14  1  0
 13 15  1  0
 13 16  1  0
 11 17  1  0
 17 18  2  0
 18  8  1  0
  2 19  1  0
 19 20  2  0
 19 21  1  0
 21 22  1  0
 22 23  2  0
 23 24  1  0
 24 25  2  0
 25 26  1  0
 26 27  1  0
 26 28  1  0
 26 29  1  0
 26 30  1  0
 26 31  1  0
 25 32  1  0
 32 33  2  0
 33 22  1  0
M  END
> <assay_chembl_id>
CHEMBL4367684

> <assay_description>
Antiproliferative activity against human LNCAP cells assessed as reduction in cell growth incubated for 96 hrs by propidium iodide based 2D monolayer assay

> <document_journal>
Eur J Med Chem

> <molecule_chembl_id>
CHEMBL4538927

> <standard_value>
92800

> <IC50_uM>
92.8

> <Activity>
No

> <Canonical_Smiles>
CC(O)(CS(=O)(=O)c1ccc(OC(F)(F)F)cc1)C(=O)Nc1ccc(S(F)(F)(F)(F)F)cc1

$$$$

  SciTegic03142313312D

 33 34  0  0  0  0            999 V2000
    2.9641    0.8660    0.0000 C   0  0
    3.4641    0.0000    0.0000 C   0  0  3  0  0  0
    3.9641   -0.8660    0.0000 O   0  0
    2.5981   -0.5000    0.0000 C   0  0
    1.7320    0.0000    0.0000 S   0  0
    2.2320    0.8660    0.0000 O   0  0
    1.2320   -0.8660    0.0000 O   0  0
    0.8660    0.5000    0.0000 C   0  0
    0.8660    1.5000    0.0000 C   0  0
    0.0000    2.0000    0.0000 C   0  0
   -0.8660    1.5000    0.0000 C   0  0
   -0.8660    0.5000    0.0000 C   0  0
   -1.7320    0.0000    0.0000 O   0  0
   -1.7320   -1.0000    0.0000 C   0  0
   -0.7320   -1.0000    0.0000 F   0  0
   -1.7320   -2.0000    0.0000 F   0  0
   -2.7320   -1.0000    0.0000 F   0  0
    0.0000    0.0000    0.0000 C   0  0
    4.3301    0.5000    0.0000 C   0  0
    4.3301    1.5000    0.0000 O   0  0
    5.1961    0.0000    0.0000 N   0  0
    6.0622    0.5000    0.0000 C   0  0
    6.9282    0.0000    0.0000 C   0  0
    7.7942    0.5001    0.0000 C   0  0
    7.7941    1.5001    0.0000 C   0  0
    8.6602    2.0001    0.0000 S   0  0
    7.7941    2.5001    0.0000 F   0  0
    8.6602    3.0001    0.0000 F   0  0
    9.5262    2.5001    0.0000 F   0  0
    9.5262    1.5001    0.0000 F   0  0
    8.6602    1.0001    0.0000 F   0  0
    6.9281    2.0000    0.0000 C   0  0
    6.0621    1.5000    0.0000 C   0  0
  2  1  1  4
  2  3  1  0
  2  4  1  0
  4  5  1  0
  5  6  2  0
  5  7  2  0
  5  8  1  0
  8  9  2  0
  9 10  1  0
 10 11  2  0
 11 12  1  0
 12 13  1  0
 13 14  1  0
 14 15  1  0
 14 16  1  0
 14 17  1  0
 12 18  2  0
 18  8  1  0
  2 19  1  0
 19 20  2  0
 19 21  1  0
 21 22  1  0
 22 23  2  0
 23 24  1  0
 24 25  2  0
 25 26  1  0
 26 27  1  0
 26 28  1  0
 26 29  1  0
 26 30  1  0
 26 31  1  0
 25 32  1  0
 32 33  2  0
 33 22  1  0
M  END
> <assay_chembl_id>
CHEMBL4367684

> <assay_description>
Antiproliferative activity against human LNCAP cells assessed as reduction in cell growth incubated for 96 hrs by propidium iodide based 2D monolayer assay

> <document_journal>
Eur J Med Chem

> <molecule_chembl_id>
CHEMBL4573902

> <standard_value>
21700

> <IC50_uM>
21.7

> <Activity>
No

> <Canonical_Smiles>
CC(O)(CS(=O)(=O)c1cccc(OC(F)(F)F)c1)C(=O)Nc1ccc(S(F)(F)(F)(F)F)cc1

$$$$

  SciTegic03142313312D

 29 30  0  0  0  0            999 V2000
   -2.0981   -2.3660    0.0000 C   0  0
   -2.5981   -1.5000    0.0000 C   0  0  3  0  0  0
   -3.0981   -0.6340    0.0000 O   0  0
   -3.4641   -2.0000    0.0000 C   0  0
   -4.3301   -1.5000    0.0000 S   0  0
   -4.8301   -2.3660    0.0000 O   0  0
   -3.8301   -0.6340    0.0000 O   0  0
   -5.1961   -1.0000    0.0000 C   0  0
   -6.0622   -1.5000    0.0000 C   0  0
   -6.9282   -1.0000    0.0000 C   0  0
   -6.9282    0.0000    0.0000 C   0  0
   -7.7942    0.5000    0.0000 F   0  0
   -6.0621    0.5000    0.0000 C   0  0
   -5.1961    0.0000    0.0000 C   0  0
   -1.7320   -1.0000    0.0000 C   0  0
   -0.8660   -1.5000    0.0000 O   0  0
   -1.7320    0.0000    0.0000 N   0  0
   -0.8660    0.5000    0.0000 C   0  0
   -0.8660    1.5000    0.0000 C   0  0
    0.0000    2.0000    0.0000 C   0  0
    0.8660    1.5000    0.0000 C   0  0
    0.8660    0.5000    0.0000 C   0  0
    1.7320    0.0000    0.0000 S   0  0
    1.7320    1.0000    0.0000 F   0  0
    2.5981    0.5000    0.0000 F   0  0
    2.5981   -0.5000    0.0000 F   0  0
    1.7320   -1.0000    0.0000 F   0  0
    0.8660   -0.5000    0.0000 F   0  0
    0.0000    0.0000    0.0000 C   0  0
  2  1  1  4
  2  3  1  0
  2  4  1  0
  4  5  1  0
  5  6  2  0
  5  7  2  0
  5  8  1  0
  8  9  2  0
  9 10  1  0
 10 11  2  0
 11 12  1  0
 11 13  1  0
 13 14  2  0
 14  8  1  0
  2 15  1  0
 15 16  2  0
 15 17  1  0
 17 18  1  0
 18 19  2  0
 19 20  1  0
 20 21  2  0
 21 22  1  0
 22 23  1  0
 23 24  1  0
 23 25  1  0
 23 26  1  0
 23 27  1  0
 23 28  1  0
 22 29  2  0
 29 18  1  0
M  END
> <assay_chembl_id>
CHEMBL4367684

> <assay_description>
Antiproliferative activity against human LNCAP cells assessed as reduction in cell growth incubated for 96 hrs by propidium iodide based 2D monolayer assay

> <document_journal>
Eur J Med Chem

> <molecule_chembl_id>
CHEMBL4442203

> <standard_value>
32600

> <IC50_uM>
32.6

> <Activity>
No

> <Canonical_Smiles>
CC(O)(CS(=O)(=O)c1ccc(F)cc1)C(=O)Nc1cccc(S(F)(F)(F)(F)F)c1

$$$$

  SciTegic03142313312D

 32 33  0  0  0  0            999 V2000
    2.9641    0.8660    0.0000 C   0  0
    3.4641    0.0000    0.0000 C   0  0  3  0  0  0
    3.9641   -0.8660    0.0000 O   0  0
    2.5981   -0.5000    0.0000 C   0  0
    1.7320    0.0000    0.0000 S   0  0
    2.2320    0.8660    0.0000 O   0  0
    1.2320   -0.8660    0.0000 O   0  0
    0.8660    0.5000    0.0000 C   0  0
    0.8660    1.5000    0.0000 C   0  0
    0.0000    2.0000    0.0000 C   0  0
   -0.8660    1.5000    0.0000 C   0  0
   -0.8660    0.5000    0.0000 C   0  0
   -1.7320    0.0000    0.0000 C   0  0
   -1.2320   -0.8660    0.0000 F   0  0
   -2.5981   -0.5000    0.0000 F   0  0
   -2.2320    0.8660    0.0000 F   0  0
    0.0000    0.0000    0.0000 C   0  0
    4.3301    0.5000    0.0000 C   0  0
    4.3301    1.5000    0.0000 O   0  0
    5.1961    0.0000    0.0000 N   0  0
    6.0622    0.5000    0.0000 C   0  0
    6.0621    1.5000    0.0000 C   0  0
    6.9281    2.0000    0.0000 C   0  0
    7.7941    1.5001    0.0000 C   0  0
    7.7942    0.5001    0.0000 C   0  0
    8.6602    0.0001    0.0000 S   0  0
    8.6602    1.0001    0.0000 F   0  0
    9.5262    0.5001    0.0000 F   0  0
    9.5262   -0.4999    0.0000 F   0  0
    8.6602   -0.9999    0.0000 F   0  0
    7.7942   -0.4999    0.0000 F   0  0
    6.9282    0.0000    0.0000 C   0  0
  2  1  1  4
  2  3  1  0
  2  4  1  0
  4  5  1  0
  5  6  2  0
  5  7  2  0
  5  8  1  0
  8  9  2  0
  9 10  1  0
 10 11  2  0
 11 12  1  0
 12 13  1  0
 13 14  1  0
 13 15  1  0
 13 16  1  0
 12 17  2  0
 17  8  1  0
  2 18  1  0
 18 19  2  0
 18 20  1  0
 20 21  1  0
 21 22  2  0
 22 23  1  0
 23 24  2  0
 24 25  1  0
 25 26  1  0
 26 27  1  0
 26 28  1  0
 26 29  1  0
 26 30  1  0
 26 31  1  0
 25 32  2  0
 32 21  1  0
M  END
> <assay_chembl_id>
CHEMBL4367684

> <assay_description>
Antiproliferative activity against human LNCAP cells assessed as reduction in cell growth incubated for 96 hrs by propidium iodide based 2D monolayer assay

> <document_journal>
Eur J Med Chem

> <molecule_chembl_id>
CHEMBL4518552

> <standard_value>
21800

> <IC50_uM>
21.8

> <Activity>
No

> <Canonical_Smiles>
CC(O)(CS(=O)(=O)c1cccc(C(F)(F)F)c1)C(=O)Nc1cccc(S(F)(F)(F)(F)F)c1

$$$$

  SciTegic03142313312D

 32 33  0  0  0  0            999 V2000
    1.5247   -1.7476    0.0000 C   0  0
    1.8470   -2.6942    0.0000 C   0  0  3  0  0  0
    2.3470   -3.5603    0.0000 O   0  0
    0.9810   -3.1942    0.0000 C   0  0
    0.1149   -2.6942    0.0000 S   0  0
    0.6149   -1.8282    0.0000 O   0  0
   -0.3851   -3.5603    0.0000 O   0  0
   -0.7511   -2.1942    0.0000 C   0  0
   -1.6171   -2.6942    0.0000 C   0  0
   -2.4831   -2.1942    0.0000 C   0  0
   -2.4831   -1.1942    0.0000 C   0  0
   -1.6171   -0.6943    0.0000 C   0  0
   -0.7511   -1.1943    0.0000 C   0  0
    0.1149   -0.6943    0.0000 C   0  0
   -0.3851    0.1718    0.0000 F   0  0
    0.9809   -0.1942    0.0000 F   0  0
    1.0106   -1.1389    0.0000 F   0  0
    2.7130   -2.1942    0.0000 C   0  0
    2.7130   -1.1942    0.0000 O   0  0
    3.5790   -2.6942    0.0000 N   0  0
    4.4451   -2.1942    0.0000 C   0  0
    4.4450   -1.1942    0.0000 C   0  0
    5.3110   -0.6942    0.0000 C   0  0
    6.1770   -1.1942    0.0000 C   0  0
    6.1771   -2.1942    0.0000 C   0  0
    7.0431   -2.6942    0.0000 S   0  0
    7.0431   -1.6942    0.0000 F   0  0
    7.9091   -2.1942    0.0000 F   0  0
    7.9091   -3.1942    0.0000 F   0  0
    7.0431   -3.6942    0.0000 F   0  0
    6.1771   -3.1942    0.0000 F   0  0
    5.3111   -2.6942    0.0000 C   0  0
  2  1  1  4
  2  3  1  0
  2  4  1  0
  4  5  1  0
  5  6  2  0
  5  7  2  0
  5  8  1  0
  8  9  2  0
  9 10  1  0
 10 11  2  0
 11 12  1  0
 12 13  2  0
 13  8  1  0
 13 14  1  0
 14 15  1  0
 14 16  1  0
 14 17  1  0
  2 18  1  0
 18 19  2  0
 18 20  1  0
 20 21  1  0
 21 22  2  0
 22 23  1  0
 23 24  2  0
 24 25  1  0
 25 26  1  0
 26 27  1  0
 26 28  1  0
 26 29  1  0
 26 30  1  0
 26 31  1  0
 25 32  2  0
 32 21  1  0
M  END
> <assay_chembl_id>
CHEMBL4367684

> <assay_description>
Antiproliferative activity against human LNCAP cells assessed as reduction in cell growth incubated for 96 hrs by propidium iodide based 2D monolayer assay

> <document_journal>
Eur J Med Chem

> <molecule_chembl_id>
CHEMBL4536461

> <standard_value>
24900

> <IC50_uM>
24.9

> <Activity>
No

> <Canonical_Smiles>
CC(O)(CS(=O)(=O)c1ccccc1C(F)(F)F)C(=O)Nc1cccc(S(F)(F)(F)(F)F)c1

$$$$

  SciTegic03142313312D

 34 36  0  0  0  0            999 V2000
   -3.4546    0.9945    0.0000 C   0  0
   -2.6456    0.4067    0.0000 C   0  0
   -2.1456    1.2728    0.0000 C   0  0
   -3.3147   -0.3365    0.0000 C   0  0
   -4.3092   -0.2320    0.0000 O   0  0
   -2.8147   -1.2024    0.0000 N   0  0
   -3.2214   -2.1159    0.0000 C   0  0
   -2.6336   -2.9249    0.0000 C   0  0
   -3.0404   -3.8385    0.0000 C   0  0
   -4.0349   -3.9430    0.0000 C   0  0
   -4.4416   -4.8565    0.0000 N   0  3
   -3.8538   -5.6656    0.0000 O   0  0
   -5.4361   -4.9611    0.0000 O   0  5
   -4.6227   -3.1340    0.0000 C   0  0
   -5.6172   -3.2385    0.0000 C   0  0
   -5.5127   -4.2331    0.0000 F   0  0
   -6.6117   -3.3431    0.0000 F   0  0
   -5.7217   -2.2440    0.0000 F   0  0
   -4.2159   -2.2205    0.0000 C   0  0
   -1.8366   -0.9946    0.0000 C   0  0
   -1.0935   -1.6637    0.0000 S   0  0
   -1.7320    0.0000    0.0000 N   0  0
   -0.8660    0.5000    0.0000 C   0  0
   -0.8660    1.5000    0.0000 C   0  0
    0.0000    2.0000    0.0000 C   0  0
    0.8660    1.5000    0.0000 C   0  0
    0.8660    0.5000    0.0000 C   0  0
    1.7320    0.0000    0.0000 S   0  0
    1.7320    1.0000    0.0000 F   0  0
    2.5981    0.5000    0.0000 F   0  0
    2.5981   -0.5000    0.0000 F   0  0
    1.7320   -1.0000    0.0000 F   0  0
    0.8660   -0.5000    0.0000 F   0  0
    0.0000    0.0000    0.0000 C   0  0
  1  2  1  0
  2  3  1  0
  2  4  1  0
  4  5  2  0
  4  6  1  0
  6  7  1  0
  7  8  2  0
  8  9  1  0
  9 10  2  0
 10 11  1  0
 11 12  2  0
 11 13  1  0
 10 14  1  0
 14 15  1  0
 15 16  1  0
 15 17  1  0
 15 18  1  0
 14 19  2  0
 19  7  1  0
  6 20  1  0
 20 21  2  0
 20 22  1  0
 22  2  1  0
 22 23  1  0
 23 24  2  0
 24 25  1  0
 25 26  2  0
 26 27  1  0
 27 28  1  0
 28 29  1  0
 28 30  1  0
 28 31  1  0
 28 32  1  0
 28 33  1  0
 27 34  2  0
 34 23  1  0
M  CHG  2  11   1  13  -1
M  END
> <assay_chembl_id>
CHEMBL4367684

> <assay_description>
Antiproliferative activity against human LNCAP cells assessed as reduction in cell growth incubated for 96 hrs by propidium iodide based 2D monolayer assay

> <document_journal>
Eur J Med Chem

> <molecule_chembl_id>
CHEMBL4441685

> <standard_value>
100000

> <IC50_uM>
100

> <Activity>
No

> <Canonical_Smiles>
CC1(C)C(=O)N(c2ccc([N+](=O)[O-])c(C(F)(F)F)c2)C(=S)N1c1cccc(S(F)(F)(F)(F)F)c1

$$$$

  SciTegic03142313312D

 34 36  0  0  0  0            999 V2000
    3.4546    1.0055    0.0000 C   0  0
    3.3501    0.0110    0.0000 C   0  0
    4.3501    0.0110    0.0000 C   0  0
    2.3719    0.2189    0.0000 C   0  0
    1.9651    1.1324    0.0000 O   0  0
    1.8720   -0.6471    0.0000 N   0  0
    0.8775   -0.7517    0.0000 C   0  0
    0.2897    0.0573    0.0000 C   0  0
   -0.7048   -0.0472    0.0000 C   0  0
   -1.1115   -0.9607    0.0000 C   0  0
   -2.1060   -1.0653    0.0000 N   0  3
   -2.5128   -1.9788    0.0000 O   0  0
   -2.6938   -0.2562    0.0000 O   0  5
   -0.5237   -1.7697    0.0000 C   0  0
    0.4708   -1.6652    0.0000 C   0  0
    1.0586   -2.4742    0.0000 C   0  0
    1.8064   -1.8103    0.0000 F   0  0
    1.6464   -3.2832    0.0000 F   0  0
    0.2495   -3.0620    0.0000 F   0  0
    2.5411   -1.3903    0.0000 C   0  0
    2.3331   -2.3684    0.0000 S   0  0
    3.4546   -0.9835    0.0000 N   0  0
    4.3207   -1.4835    0.0000 C   0  0
    4.3207   -2.4835    0.0000 C   0  0
    5.1867   -2.9835    0.0000 C   0  0
    6.0527   -2.4835    0.0000 C   0  0
    6.9187   -2.9835    0.0000 S   0  0
    6.9187   -1.9835    0.0000 F   0  0
    7.7847   -2.4835    0.0000 F   0  0
    7.7847   -3.4835    0.0000 F   0  0
    6.9187   -3.9835    0.0000 F   0  0
    6.0527   -3.4835    0.0000 F   0  0
    6.0527   -1.4835    0.0000 C   0  0
    5.1867   -0.9835    0.0000 C   0  0
  1  2  1  0
  2  3  1  0
  2  4  1  0
  4  5  2  0
  4  6  1  0
  6  7  1  0
  7  8  2  0
  8  9  1  0
  9 10  2  0
 10 11  1  0
 11 12  2  0
 11 13  1  0
 10 14  1  0
 14 15  2  0
  7 15  1  4
 15 16  1  0
 16 17  1  0
 16 18  1  0
 16 19  1  0
  6 20  1  0
 20 21  2  0
 20 22  1  0
 22  2  1  0
 22 23  1  0
 23 24  2  0
 24 25  1  0
 25 26  2  0
 26 27  1  0
 27 28  1  0
 27 29  1  0
 27 30  1  0
 27 31  1  0
 27 32  1  0
 26 33  1  0
 33 34  2  0
 34 23  1  0
M  CHG  2  11   1  13  -1
M  END
> <assay_chembl_id>
CHEMBL4367684

> <assay_description>
Antiproliferative activity against human LNCAP cells assessed as reduction in cell growth incubated for 96 hrs by propidium iodide based 2D monolayer assay

> <document_journal>
Eur J Med Chem

> <molecule_chembl_id>
CHEMBL4517068

> <standard_value>
100000

> <IC50_uM>
100

> <Activity>
No

> <Canonical_Smiles>
CC1(C)C(=O)N(c2ccc([N+](=O)[O-])cc2C(F)(F)F)C(=S)N1c1ccc(S(F)(F)(F)(F)F)cc1

$$$$

  SciTegic03142313312D

 31 33  0  0  0  0            999 V2000
    3.4546    1.0055    0.0000 C   0  0
    3.3501    0.0110    0.0000 C   0  0
    4.3501    0.0110    0.0000 C   0  0
    2.3719    0.2189    0.0000 C   0  0
    1.9651    1.1324    0.0000 O   0  0
    1.8720   -0.6471    0.0000 N   0  0
    0.8775   -0.7517    0.0000 C   0  0
    0.2897    0.0573    0.0000 C   0  0
   -0.7048   -0.0472    0.0000 C   0  0
   -1.1115   -0.9608    0.0000 C   0  0
   -2.1060   -1.0653    0.0000 S   0  0
   -1.5182   -1.8743    0.0000 F   0  0
   -2.5128   -1.9789    0.0000 F   0  0
   -3.1005   -1.1699    0.0000 F   0  0
   -2.6938   -0.2563    0.0000 F   0  0
   -1.6993   -0.1518    0.0000 F   0  0
   -0.5237   -1.7698    0.0000 C   0  0
    0.4708   -1.6652    0.0000 C   0  0
    2.5411   -1.3903    0.0000 C   0  0
    2.3331   -2.3684    0.0000 S   0  0
    3.4546   -0.9835    0.0000 N   0  0
    4.3207   -1.4835    0.0000 C   0  0
    4.3207   -2.4835    0.0000 C   0  0
    5.1867   -2.9835    0.0000 C   0  0
    6.0527   -2.4835    0.0000 C   0  0
    6.9187   -2.9835    0.0000 C   0  0
    7.4187   -2.1175    0.0000 F   0  0
    7.7847   -3.4835    0.0000 F   0  0
    6.4187   -3.8495    0.0000 F   0  0
    6.0527   -1.4835    0.0000 C   0  0
    5.1867   -0.9835    0.0000 C   0  0
  1  2  1  0
  2  3  1  0
  2  4  1  0
  4  5  2  0
  4  6  1  0
  6  7  1  0
  7  8  2  0
  8  9  1  0
  9 10  2  0
 10 11  1  0
 11 12  1  0
 11 13  1  0
 11 14  1  0
 11 15  1  0
 11 16  1  0
 10 17  1  0
 17 18  2  0
 18  7  1  0
  6 19  1  0
 19 20  2  0
 19 21  1  0
 21  2  1  0
 21 22  1  0
 22 23  2  0
 23 24  1  0
 24 25  2  0
 25 26  1  0
 26 27  1  0
 26 28  1  0
 26 29  1  0
 25 30  1  0
 30 31  2  0
 31 22  1  0
M  END
> <assay_chembl_id>
CHEMBL4367684

> <assay_description>
Antiproliferative activity against human LNCAP cells assessed as reduction in cell growth incubated for 96 hrs by propidium iodide based 2D monolayer assay

> <document_journal>
Eur J Med Chem

> <molecule_chembl_id>
CHEMBL4553610

> <standard_value>
47400

> <IC50_uM>
47.4

> <Activity>
No

> <Canonical_Smiles>
CC1(C)C(=O)N(c2ccc(S(F)(F)(F)(F)F)cc2)C(=S)N1c1ccc(C(F)(F)F)cc1

$$$$

  SciTegic03142313312D

 32 34  0  0  0  0            999 V2000
    8.6939    0.9001    0.0000 C   0  0
    7.6994    1.0047    0.0000 N   0  0
    7.2927    1.9182    0.0000 C   0  0
    7.8805    2.7272    0.0000 O   0  0
    6.2982    2.0228    0.0000 C   0  0
    5.7104    1.2138    0.0000 C   0  0
    4.7159    1.3183    0.0000 C   0  0
    4.3092    2.2318    0.0000 C   0  0
    3.3147    2.3364    0.0000 N   0  0
    2.6455    1.5932    0.0000 C   0  0
    2.8534    0.6151    0.0000 S   0  0
    1.7320    2.0000    0.0000 N   0  0
    0.8660    1.5000    0.0000 C   0  0
    0.0000    2.0000    0.0000 C   0  0
   -0.8660    1.5000    0.0000 C   0  0
   -0.8660    0.5000    0.0000 C   0  0
   -1.7320    0.0000    0.0000 S   0  0
   -0.8660   -0.5000    0.0000 F   0  0
   -1.7320   -1.0000    0.0000 F   0  0
   -2.5981   -0.5000    0.0000 F   0  0
   -2.5981    0.5000    0.0000 F   0  0
   -1.7320    1.0000    0.0000 F   0  0
    0.0000    0.0000    0.0000 C   0  0
    0.8660    0.5000    0.0000 C   0  0
    1.8365    2.9945    0.0000 C   0  0
    1.0933    3.6636    0.0000 O   0  0
    2.8147    3.2024    0.0000 C   0  0
    2.5056    4.1535    0.0000 C   0  0
    3.7282    3.6091    0.0000 C   0  0
    4.8970    3.0408    0.0000 C   0  0
    5.8915    2.9363    0.0000 C   0  0
    6.4793    3.7453    0.0000 F   0  0
  1  2  1  0
  2  3  1  0
  3  4  2  0
  3  5  1  0
  5  6  2  0
  6  7  1  0
  7  8  2  0
  8  9  1  0
  9 10  1  0
 10 11  2  0
 10 12  1  0
 12 13  1  0
 13 14  2  0
 14 15  1  0
 15 16  2  0
 16 17  1  0
 17 18  1  0
 17 19  1  0
 17 20  1  0
 17 21  1  0
 17 22  1  0
 16 23  1  0
 23 24  2  0
 24 13  1  0
 12 25  1  0
 25 26  2  0
 25 27  1  0
 27  9  1  0
 27 28  1  0
 27 29  1  0
  8 30  1  0
 30 31  2  0
 31  5  1  0
 31 32  1  0
M  END
> <assay_chembl_id>
CHEMBL4367684

> <assay_description>
Antiproliferative activity against human LNCAP cells assessed as reduction in cell growth incubated for 96 hrs by propidium iodide based 2D monolayer assay

> <document_journal>
Eur J Med Chem

> <molecule_chembl_id>
CHEMBL4574240

> <standard_value>
23000

> <IC50_uM>
23

> <Activity>
No

> <Canonical_Smiles>
CNC(=O)c1ccc(N2C(=S)N(c3ccc(S(F)(F)(F)(F)F)cc3)C(=O)C2(C)C)cc1F

$$$$

  SciTegic03142313312D

 32 34  0  0  0  0            999 V2000
   -8.6939    1.0999    0.0000 C   0  0
   -7.6994    0.9953    0.0000 N   0  0
   -7.2927    0.0818    0.0000 C   0  0
   -7.8805   -0.7272    0.0000 O   0  0
   -6.2982   -0.0228    0.0000 C   0  0
   -5.7104    0.7862    0.0000 C   0  0
   -4.7159    0.6817    0.0000 C   0  0
   -4.3092   -0.2318    0.0000 C   0  0
   -3.3147   -0.3364    0.0000 N   0  0
   -2.6455    0.4068    0.0000 C   0  0
   -2.8534    1.3849    0.0000 S   0  0
   -1.7320    0.0000    0.0000 N   0  0
   -0.8660    0.5000    0.0000 C   0  0
   -0.8660    1.5000    0.0000 C   0  0
    0.0000    2.0000    0.0000 C   0  0
    0.8660    1.5000    0.0000 C   0  0
    0.8660    0.5000    0.0000 C   0  0
    1.7320    0.0000    0.0000 S   0  0
    1.7320    1.0000    0.0000 F   0  0
    2.5981    0.5000    0.0000 F   0  0
    2.5981   -0.5000    0.0000 F   0  0
    1.7320   -1.0000    0.0000 F   0  0
    0.8660   -0.5000    0.0000 F   0  0
    0.0000    0.0000    0.0000 C   0  0
   -1.8365   -0.9945    0.0000 C   0  0
   -1.0933   -1.6636    0.0000 O   0  0
   -2.8147   -1.2024    0.0000 C   0  0
   -2.5056   -2.1535    0.0000 C   0  0
   -3.7282   -1.6091    0.0000 C   0  0
   -4.8970   -1.0408    0.0000 C   0  0
   -5.8915   -0.9363    0.0000 C   0  0
   -6.4793   -1.7453    0.0000 F   0  0
  1  2  1  0
  2  3  1  0
  3  4  2  0
  3  5  1  0
  5  6  2  0
  6  7  1  0
  7  8  2  0
  8  9  1  0
  9 10  1  0
 10 11  2  0
 10 12  1  0
 12 13  1  0
 13 14  2  0
 14 15  1  0
 15 16  2  0
 16 17  1  0
 17 18  1  0
 18 19  1  0
 18 20  1  0
 18 21  1  0
 18 22  1  0
 18 23  1  0
 17 24  2  0
 24 13  1  0
 12 25  1  0
 25 26  2  0
 25 27  1  0
 27  9  1  0
 27 28  1  0
 27 29  1  0
  8 30  1  0
 30 31  2  0
 31  5  1  0
 31 32  1  0
M  END
> <assay_chembl_id>
CHEMBL4367684

> <assay_description>
Antiproliferative activity against human LNCAP cells assessed as reduction in cell growth incubated for 96 hrs by propidium iodide based 2D monolayer assay

> <document_journal>
Eur J Med Chem

> <molecule_chembl_id>
CHEMBL4528674

> <standard_value>
25100

> <IC50_uM>
25.1

> <Activity>
No

> <Canonical_Smiles>
CNC(=O)c1ccc(N2C(=S)N(c3cccc(S(F)(F)(F)(F)F)c3)C(=O)C2(C)C)cc1F

$$$$

  SciTegic03142313312D

 76 83  0  0  1  0            999 V2000
   15.2515   -5.7078    0.0000 C   0  0
   15.8718   -7.0736    0.0000 C   0  0
   17.3647   -7.2187    0.0000 O   0  0
   14.9983   -8.2940    0.0000 O   0  0
   13.5045   -8.1488    0.0000 C   0  0
   12.6311   -9.3692    0.0000 C   0  0  1  0  0  0
   11.1385   -9.2200    0.0000 O   0  0
   10.2629  -10.4381    0.0000 C   0  0  2  0  0  0
    8.9120   -9.7843    0.0000 O   0  0
    8.8018   -8.2875    0.0000 C   0  0  1  0  0  0
    7.4525   -7.6321    0.0000 C   0  0  2  0  0  0
    6.2114   -8.4760    0.0000 O   0  0
    6.3206   -9.9728    0.0000 C   0  0
    7.6710  -10.6258    0.0000 C   0  0
    5.0802  -10.8162    0.0000 O   0  0
    7.3454   -6.1360    0.0000 C   0  0  1  0  0  0
    5.9940   -5.4831    0.0000 O   0  0
    4.7524   -6.3262    0.0000 C   0  0
    4.8621   -7.8221    0.0000 C   0  0
    3.4018   -5.6736    0.0000 O   0  0
    8.5876   -5.2950    0.0000 C   0  0  2  0  0  0
    8.4774   -3.7983    0.0000 O   0  0
    7.1265   -3.1445    0.0000 C   0  0
    7.0165   -1.6502    0.0000 C   0  0
    5.7432   -0.8574    0.0000 C   0  0
    6.1178    0.5819    0.0000 N   0  0
    5.1531    1.7316    0.0000 C   0  0  1  0  0  0
    5.6662    3.1411    0.0000 C   0  0
    4.7020    4.2902    0.0000 C   0  0
    3.2248    4.0297    0.0000 C   0  0  1  0  0  0
    3.7378    5.4392    0.0000 C   0  0
    2.7117    2.6202    0.0000 C   0  0  2  0  0  0
    1.2345    2.3597    0.0000 C   0  0
    0.2703    3.5087    0.0000 C   0  0
    0.7834    4.9183    0.0000 C   0  0  2  0  0  0
    2.2606    5.1788    0.0000 C   0  0  2  0  0  0
    2.7736    6.5883    0.0000 C   0  0
    1.8094    7.7374    0.0000 C   0  0
    0.3322    7.4769    0.0000 C   0  0  2  0  0  0
    0.6968    8.9319    0.0000 C   0  0
   -0.8389    8.3964    0.0000 C   0  0  1  0  0  0
   -0.7847    9.8962    0.0000 C   0  0
    0.3872   10.8040    0.0000 C   0  0
   -0.1373   12.2093    0.0000 C   0  0
    0.6913   13.4596    0.0000 O   0  0
   -1.6359   12.1447    0.0000 O   0  0
   -2.0376   10.6994    0.0000 C   0  0
   -2.0825    7.5576    0.0000 C   0  0
   -1.6690    6.1157    0.0000 C   0  0
   -0.1808    6.0674    0.0000 C   0  0  2  0  0  0
   -0.8367    4.7184    0.0000 O   0  0
    3.6759    1.4711    0.0000 C   0  0
    7.5999    0.7056    0.0000 N   0  0
    8.1640   -0.6842    0.0000 N   0  0
    9.9369   -5.9505    0.0000 O   0  0
   10.0440   -7.4467    0.0000 C   0  0  2  0  0  0
   11.3953   -8.0996    0.0000 C   0  0
   12.6370   -7.2565    0.0000 O   0  0
   12.5287   -5.7596    0.0000 C   0  0
   11.1787   -5.1058    0.0000 C   0  0
   13.7696   -4.9170    0.0000 O   0  0
   10.8801  -11.8052    0.0000 C   0  0  2  0  0  0
   10.0017  -13.0221    0.0000 O   0  0
    8.5085  -12.8708    0.0000 C   0  0
    7.8938  -11.5025    0.0000 C   0  0
    7.6305  -14.0870    0.0000 O   0  0
   12.3727  -11.9544    0.0000 C   0  0  1  0  0  0
   12.9873  -13.3237    0.0000 O   0  0
   12.1096  -14.5411    0.0000 C   0  0
   10.6173  -14.3893    0.0000 C   0  0
   12.7238  -15.9095    0.0000 O   0  0
   13.2482  -10.7364    0.0000 C   0  0  2  0  0  0
   14.7412  -10.8888    0.0000 O   0  0
   15.3567  -12.2576    0.0000 C   0  0
   14.4791  -13.4741    0.0000 C   0  0
   16.8490  -12.4099    0.0000 O   0  0
  1  2  1  0
  2  3  2  0
  2  4  1  0
  4  5  1  0
  6  5  1  6
  6  7  1  0
  7  8  1  0
  8  9  1  1
 10  9  1  1
 10 11  1  0
 11 12  1  6
 12 13  1  0
 13 14  1  0
 13 15  2  0
 11 16  1  0
 16 17  1  1
 17 18  1  0
 18 19  1  0
 18 20  2  0
 16 21  1  0
 21 22  1  6
 22 23  1  0
 23 24  1  0
 24 25  2  0
 25 26  1  0
 27 26  1  6
 27 28  1  0
 28 29  1  0
 29 30  1  0
 30 31  1  6
 30 32  1  0
 32 33  1  1
 33 34  1  0
 35 34  1  1
 35 36  1  0
 36 30  1  0
 36 37  1  6
 37 38  1  0
 38 39  1  0
 39 40  1  6
 39 41  1  0
 41 42  1  6
 42 43  2  0
 43 44  1  0
 44 45  2  0
 44 46  1  0
 46 47  1  0
 47 42  1  0
 41 48  1  0
 48 49  1  0
 49 50  1  0
 50 35  1  0
 50 39  1  0
 50 51  1  6
 32 52  1  0
 52 27  1  0
 26 53  1  0
 53 54  2  0
 54 24  1  0
 21 55  1  0
 55 56  1  0
 56 10  1  0
 56 57  1  6
 57 58  1  0
 58 59  1  0
 59 60  1  0
 59 61  2  0
  8 62  1  0
 62 63  1  1
 63 64  1  0
 64 65  1  0
 64 66  2  0
 62 67  1  0
 67 68  1  6
 68 69  1  0
 69 70  1  0
 69 71  2  0
 67 72  1  0
 72  6  1  0
 72 73  1  1
 73 74  1  0
 74 75  1  0
 74 76  2  0
M  END
> <assay_chembl_id>
CHEMBL4391661

> <assay_description>
Cytotoxicity against human LNCAP cells assessed as inhibition of cell viability after 48 hrs by SRB assay

> <document_journal>
Eur J Med Chem

> <molecule_chembl_id>
CHEMBL4593930

> <standard_value>
23840

> <IC50_uM>
23.84

> <Activity>
No

> <Canonical_Smiles>
CC(=O)OC[C@H]1O[C@H](O[C@H]2[C@H](OC(C)=O)[C@@H](OC(C)=O)[C@H](OCc3cn([C@H]4CC[C@@]5(C)[C@H](CC[C@@H]6[C@@H]5CC[C@]5(C)[C@@H](C7=CC(=O)OC7)CC[C@]65O)C4)nn3)O[C@@H]2COC(C)=O)[C@H](OC(C)=O)[C@@H](OC(C)=
O)[C@@H]1OC(C)=O

$$$$

  SciTegic03142313312D

 34 38  0  0  1  0            999 V2000
    2.5981    0.0000    0.0000 C   0  0
    1.2990   -0.7500    0.0000 C   0  0  2  0  0  0
    1.2990    0.7500    0.0000 C   0  0
    0.0000    1.5000    0.0000 C   0  0
   -1.2990    0.7500    0.0000 C   0  0  2  0  0  0
   -2.5973    1.5031    0.0000 N   0  0
   -2.5951    3.0039    0.0000 C   0  0
   -1.2948    3.7516    0.0000 O   0  0
   -3.8933    3.7570    0.0000 C   0  0
   -3.8912    5.2578    0.0000 N   0  0
   -5.1894    6.0109    0.0000 C   0  0
   -5.1873    7.5117    0.0000 C   0  0
   -6.4848    8.2644    0.0000 O   0  0
   -1.2990   -0.7500    0.0000 C   0  0
    0.0000   -1.5000    0.0000 C   0  0  1  0  0  0
    0.0000   -3.0000    0.0000 C   0  0
    1.2990   -3.7500    0.0000 C   0  0
    2.5981   -3.0000    0.0000 C   0  0  2  0  0  0
    2.5981   -1.5000    0.0000 C   0  0  2  0  0  0
    3.8971   -0.7500    0.0000 C   0  0
    5.1962   -1.5000    0.0000 C   0  0
    5.1962   -3.0000    0.0000 C   0  0  2  0  0  0
    6.5657   -2.3882    0.0000 C   0  0
    6.3051   -3.9936    0.0000 C   0  0  1  0  0  0
    7.7727   -3.6799    0.0000 C   0  0
    8.4631   -2.3680    0.0000 C   0  0
    9.9382   -2.6406    0.0000 C   0  0
   11.0256   -1.6074    0.0000 O   0  0
   10.1348   -4.1276    0.0000 O   0  0
    8.7813   -4.7742    0.0000 C   0  0
    5.6950   -5.3640    0.0000 C   0  0
    4.2032   -5.2072    0.0000 C   0  0
    3.8971   -3.7500    0.0000 C   0  0  2  0  0  0
    2.6825   -4.6302    0.0000 O   0  0
  2  1  1  1
  2  3  1  0
  3  4  1  0
  4  5  1  0
  5  6  1  1
  6  7  1  0
  7  8  2  0
  7  9  1  0
  9 10  1  0
 10 11  1  0
 11 12  1  0
 12 13  1  0
  5 14  1  0
 15 14  1  6
 15  2  1  0
 15 16  1  0
 16 17  1  0
 18 17  1  6
 18 19  1  0
 19  2  1  0
 19 20  1  1
 20 21  1  0
 21 22  1  0
 22 23  1  1
 22 24  1  0
 24 25  1  1
 25 26  2  0
 26 27  1  0
 27 28  2  0
 27 29  1  0
 29 30  1  0
 30 25  1  0
 24 31  1  0
 31 32  1  0
 32 33  1  0
 33 18  1  0
 33 22  1  0
 33 34  1  1
M  END
> <assay_chembl_id>
CHEMBL4391661

> <assay_description>
Cytotoxicity against human LNCAP cells assessed as inhibition of cell viability after 48 hrs by SRB assay

> <document_journal>
Eur J Med Chem

> <molecule_chembl_id>
CHEMBL4580052

> <standard_value>
130

> <IC50_uM>
0.13

> <Activity>
Yes

> <Canonical_Smiles>
C[C@]12CC[C@H](NC(=O)CNCCO)C[C@H]1CC[C@@H]1[C@@H]2CC[C@]2(C)[C@@H](C3=CC(=O)OC3)CC[C@]12O

$$$$

  SciTegic03142313312D

 31 35  0  0  1  0            999 V2000
    2.5981    0.0000    0.0000 C   0  0
    1.2990   -0.7500    0.0000 C   0  0  2  0  0  0
    1.2990    0.7500    0.0000 C   0  0
    0.0000    1.5000    0.0000 C   0  0
   -1.2990    0.7500    0.0000 C   0  0  2  0  0  0
   -2.5973    1.5031    0.0000 N   0  0
   -2.5951    3.0039    0.0000 C   0  0
   -1.2948    3.7516    0.0000 O   0  0
   -3.8933    3.7570    0.0000 C   0  0
   -3.8912    5.2570    0.0000 O   0  0
   -1.2990   -0.7500    0.0000 C   0  0
    0.0000   -1.5000    0.0000 C   0  0  1  0  0  0
    0.0000   -3.0000    0.0000 C   0  0
    1.2990   -3.7500    0.0000 C   0  0
    2.5981   -3.0000    0.0000 C   0  0  2  0  0  0
    2.5981   -1.5000    0.0000 C   0  0  2  0  0  0
    3.8971   -0.7500    0.0000 C   0  0
    5.1962   -1.5000    0.0000 C   0  0
    5.1962   -3.0000    0.0000 C   0  0  2  0  0  0
    6.5657   -2.3882    0.0000 C   0  0
    6.3051   -3.9936    0.0000 C   0  0  1  0  0  0
    7.7727   -3.6799    0.0000 C   0  0
    8.4631   -2.3680    0.0000 C   0  0
    9.9382   -2.6406    0.0000 C   0  0
   11.0256   -1.6074    0.0000 O   0  0
   10.1348   -4.1276    0.0000 O   0  0
    8.7813   -4.7742    0.0000 C   0  0
    5.6950   -5.3640    0.0000 C   0  0
    4.2032   -5.2072    0.0000 C   0  0
    3.8971   -3.7500    0.0000 C   0  0  2  0  0  0
    2.6825   -4.6302    0.0000 O   0  0
  2  1  1  1
  2  3  1  0
  3  4  1  0
  4  5  1  0
  5  6  1  1
  6  7  1  0
  7  8  2  0
  7  9  1  0
  9 10  1  0
  5 11  1  0
 12 11  1  6
 12  2  1  0
 12 13  1  0
 13 14  1  0
 15 14  1  6
 15 16  1  0
 16  2  1  0
 16 17  1  1
 17 18  1  0
 18 19  1  0
 19 20  1  1
 19 21  1  0
 21 22  1  1
 22 23  2  0
 23 24  1  0
 24 25  2  0
 24 26  1  0
 26 27  1  0
 27 22  1  0
 21 28  1  0
 28 29  1  0
 29 30  1  0
 30 15  1  0
 30 19  1  0
 30 31  1  1
M  END
> <assay_chembl_id>
CHEMBL4391661

> <assay_description>
Cytotoxicity against human LNCAP cells assessed as inhibition of cell viability after 48 hrs by SRB assay

> <document_journal>
Eur J Med Chem

> <molecule_chembl_id>
CHEMBL4450350

> <standard_value>
810

> <IC50_uM>
0.81

> <Activity>
Yes

> <Canonical_Smiles>
C[C@]12CC[C@H](NC(=O)CO)C[C@H]1CC[C@@H]1[C@@H]2CC[C@]2(C)[C@@H](C3=CC(=O)OC3)CC[C@]12O

$$$$

  SciTegic03142313312D

 30 33  0  0  1  0            999 V2000
    9.4998   -4.4591    0.0000 C   0  0
    9.9363   -3.0240    0.0000 N   0  0
   11.3501   -2.5229    0.0000 N   0  0
   11.3105   -1.0234    0.0000 C   0  0
    9.8721   -0.5978    0.0000 C   0  0
    9.3624    0.8129    0.0000 Cl  0  0
    9.0479   -1.8300    0.0000 C   0  0
    7.5554   -1.9869    0.0000 C   0  0
    6.5517   -0.8722    0.0000 C   0  0
    5.2003   -1.4932    0.0000 C   0  0
    3.8990   -0.7455    0.0000 C   0  0
    3.8964    0.7545    0.0000 O   0  0
    2.6003   -1.4977    0.0000 N   0  0
    1.2990   -0.7500    0.0000 C   0  0  2  0  0  0
    1.2990    0.7500    0.0000 C   0  0
    0.0000    1.5000    0.0000 N   0  0
   -1.2990    0.7500    0.0000 C   0  0
   -1.2990   -0.7500    0.0000 C   0  0
    0.0000   -1.5000    0.0000 C   0  0  1  0  0  0
    0.0000   -3.0008    0.0000 C   0  0
    1.2979   -3.7529    0.0000 C   0  0
    1.2955   -5.2529    0.0000 C   0  0
   -0.0047   -6.0009    0.0000 C   0  0
   -0.0071   -7.5009    0.0000 Cl  0  0
   -1.3026   -5.2488    0.0000 C   0  0
   -2.6028   -5.9967    0.0000 Cl  0  0
   -1.3002   -3.7488    0.0000 C   0  0
    5.3382   -2.9741    0.0000 O   0  0
    6.8054   -3.2859    0.0000 C   0  0
    7.4155   -4.6562    0.0000 Cl  0  0
  1  2  1  0
  2  3  1  0
  3  4  2  0
  4  5  1  0
  5  6  1  0
  5  7  2  0
  7  2  1  4
  7  8  1  0
  8  9  1  0
  9 10  2  0
 10 11  1  0
 11 12  2  0
 11 13  1  0
 14 13  1  1
 14 15  1  0
 15 16  1  0
 16 17  1  0
 17 18  1  0
 18 19  1  0
 19 14  1  0
 19 20  1  6
 20 21  2  0
 21 22  1  0
 22 23  2  0
 23 24  1  0
 23 25  1  0
 25 26  1  0
 25 27  2  0
 27 20  1  0
 10 28  1  0
 28 29  1  0
 29  8  2  0
 29 30  1  0
M  END
> <assay_chembl_id>
CHEMBL4407363

> <assay_description>
Antiproliferative activity against human LNCAP cells

> <document_journal>
J Med Chem

> <molecule_chembl_id>
CHEMBL4445510

> <standard_value>
100

> <IC50_uM>
0.1

> <Activity>
Yes

> <Canonical_Smiles>
Cn1ncc(Cl)c1-c1cc(C(=O)N[C@@H]2CNCC[C@H]2c2ccc(Cl)c(Cl)c2)oc1Cl

$$$$

  SciTegic03142313312D

 30 33  0  0  1  0            999 V2000
    9.4998   -4.4591    0.0000 C   0  0
    9.9363   -3.0240    0.0000 N   0  0
   11.3501   -2.5229    0.0000 N   0  0
   11.3105   -1.0234    0.0000 C   0  0
    9.8721   -0.5978    0.0000 C   0  0
    9.3624    0.8129    0.0000 Cl  0  0
    9.0479   -1.8300    0.0000 C   0  0
    7.5554   -1.9869    0.0000 C   0  0
    6.5517   -0.8722    0.0000 C   0  0
    5.2003   -1.4932    0.0000 C   0  0
    3.8990   -0.7455    0.0000 C   0  0
    3.8964    0.7545    0.0000 O   0  0
    2.6003   -1.4977    0.0000 N   0  0
    1.2990   -0.7500    0.0000 C   0  0  2  0  0  0
    1.2990    0.7500    0.0000 C   0  0
    0.0000    1.5000    0.0000 N   0  0
   -1.2990    0.7500    0.0000 C   0  0
   -1.2990   -0.7500    0.0000 C   0  0
    0.0000   -1.5000    0.0000 C   0  0  1  0  0  0
    0.0000   -3.0008    0.0000 C   0  0
    1.2979   -3.7529    0.0000 C   0  0
    1.2955   -5.2529    0.0000 C   0  0
   -0.0047   -6.0009    0.0000 C   0  0
   -0.0071   -7.5009    0.0000 F   0  0
   -1.3026   -5.2488    0.0000 C   0  0
   -2.6028   -5.9967    0.0000 F   0  0
   -1.3002   -3.7488    0.0000 C   0  0
    5.3382   -2.9741    0.0000 O   0  0
    6.8054   -3.2859    0.0000 C   0  0
    7.4155   -4.6562    0.0000 Cl  0  0
  1  2  1  0
  2  3  1  0
  3  4  2  0
  4  5  1  0
  5  6  1  0
  5  7  2  0
  7  2  1  4
  7  8  1  0
  8  9  1  0
  9 10  2  0
 10 11  1  0
 11 12  2  0
 11 13  1  0
 14 13  1  1
 14 15  1  0
 15 16  1  0
 16 17  1  0
 17 18  1  0
 18 19  1  0
 19 14  1  0
 19 20  1  6
 20 21  2  0
 21 22  1  0
 22 23  2  0
 23 24  1  0
 23 25  1  0
 25 26  1  0
 25 27  2  0
 27 20  1  0
 10 28  1  0
 28 29  1  0
 29  8  2  0
 29 30  1  0
M  END
> <assay_chembl_id>
CHEMBL4407363

> <assay_description>
Antiproliferative activity against human LNCAP cells

> <document_journal>
J Med Chem

> <molecule_chembl_id>
CHEMBL4457064

> <standard_value>
60

> <IC50_uM>
0.06

> <Activity>
Yes

> <Canonical_Smiles>
Cn1ncc(Cl)c1-c1cc(C(=O)N[C@@H]2CNCC[C@H]2c2ccc(F)c(F)c2)oc1Cl.O=C(O)[C@H](O)[C@@H](O)C(=O)O

$$$$

  SciTegic03142313312D

 30 33  0  0  1  0            999 V2000
    6.4760   -2.2250    0.0000 N   0  0
    5.1945   -3.0045    0.0000 C   0  0
    5.1557   -4.4845    0.0000 C   0  0
    6.4537   -5.2364    0.0000 O   0  0
    3.8551   -5.2334    0.0000 N   0  0
    3.8524   -6.7342    0.0000 C   0  0  1  0  0  0
    5.1526   -7.4839    0.0000 C   0  0
    6.4524   -6.7335    0.0000 C   0  0
    7.7519   -7.4828    0.0000 O   0  0
    2.5518   -7.4831    0.0000 C   0  0
    2.5469   -8.9831    0.0000 C   0  0
    1.2455   -9.7290    0.0000 C   0  0
   -0.0512   -8.9748    0.0000 C   0  0
   -1.3526   -9.7207    0.0000 Cl  0  0
   -0.0464   -7.4748    0.0000 C   0  0
    1.2551   -6.7290    0.0000 C   0  0
    5.1969   -1.5045    0.0000 C   0  0
    3.8991   -0.7525    0.0000 C   0  0
    2.5987   -1.5004    0.0000 N   0  0
    1.2990   -0.7500    0.0000 C   0  0
    1.2990    0.7500    0.0000 N   0  0
    0.0000    1.5000    0.0000 C   0  0
   -1.2990    0.7500    0.0000 N   0  0
   -1.2990   -0.7500    0.0000 C   0  0
   -2.4133   -1.7530    0.0000 N   0  0
   -1.8032   -3.1233    0.0000 C   0  0
   -0.3114   -2.9665    0.0000 C   0  0
    0.0000   -1.5000    0.0000 C   0  0
    2.5965   -3.0004    0.0000 C   0  0
    3.8943   -3.7525    0.0000 C   0  0
  1  2  1  0
  2  3  1  0
  3  4  2  0
  3  5  1  0
  6  5  1  1
  6  7  1  0
  7  8  1  0
  8  9  1  0
  6 10  1  0
 10 11  2  0
 11 12  1  0
 12 13  2  0
 13 14  1  0
 13 15  1  0
 15 16  2  0
 16 10  1  0
  2 17  1  0
 17 18  1  0
 18 19  1  0
 19 20  1  0
 20 21  1  0
 21 22  2  0
 22 23  1  0
 23 24  1  0
 24 25  2  0
 25 26  1  0
 26 27  2  0
 27 28  1  0
 28 20  2  0
 28 24  1  0
 19 29  1  0
 29 30  1  0
 30  2  1  0
M  END
> <assay_chembl_id>
CHEMBL4407363

> <assay_description>
Antiproliferative activity against human LNCAP cells

> <document_journal>
J Med Chem

> <molecule_chembl_id>
CHEMBL2325741

> <standard_value>
178

> <IC50_uM>
0.178

> <Activity>
Yes

> <Canonical_Smiles>
NC1(C(=O)N[C@@H](CCO)c2ccc(Cl)cc2)CCN(c2nc[nH]c3nccc2-3)CC1

$$$$

  SciTegic03142313312D

 36 39  0  0  1  0            999 V2000
    2.5909   -6.0056    0.0000 C   0  0
    3.8912   -5.2578    0.0000 C   0  0
    5.1887   -6.0105    0.0000 O   0  0
    3.8933   -3.7570    0.0000 N   0  0
    2.5951   -3.0039    0.0000 C   0  0
    2.5973   -1.5031    0.0000 C   0  0
    1.2990   -0.7500    0.0000 C   0  0  2  0  0  0
    1.2990    0.7500    0.0000 C   0  0
    0.0000    1.5000    0.0000 C   0  0  1  0  0  0
    0.0000    3.0008    0.0000 C   0  0
   -1.2979    3.7529    0.0000 C   0  0
   -1.2955    5.2529    0.0000 C   0  0
    0.0047    6.0009    0.0000 C   0  0
    0.0071    7.5009    0.0000 F   0  0
    1.3026    5.2488    0.0000 C   0  0
    2.6028    5.9968    0.0000 F   0  0
    1.3002    3.7488    0.0000 C   0  0
   -1.2990    0.7500    0.0000 C   0  0  2  0  0  0
   -2.5973    1.5031    0.0000 N   0  0
   -3.8990    0.7562    0.0000 C   0  0
   -3.9026   -0.7438    0.0000 O   0  0
   -5.1972    1.5092    0.0000 C   0  0
   -6.5512    0.8938    0.0000 C   0  0
   -7.5503    2.0126    0.0000 C   0  0
   -9.0434    1.8619    0.0000 C   0  0
   -9.8727    0.6330    0.0000 C   0  0
   -9.3687   -0.7798    0.0000 Cl  0  0
  -11.3093    1.0646    0.0000 C   0  0
  -11.3427    2.5642    0.0000 N   0  0
   -9.9269    3.0595    0.0000 N   0  0
   -9.4845    4.4927    0.0000 C   0  0
   -6.7949    3.3085    0.0000 C   0  0
   -7.3994    4.6814    0.0000 Cl  0  0
   -5.3290    2.9907    0.0000 O   0  0
   -1.2990   -0.7500    0.0000 C   0  0
    0.0000   -1.5000    0.0000 N   0  0
  1  2  1  0
  2  3  2  0
  2  4  1  0
  4  5  1  0
  5  6  1  0
  7  6  1  1
  7  8  1  0
  8  9  1  0
  9 10  1  6
 10 11  2  0
 11 12  1  0
 12 13  2  0
 13 14  1  0
 13 15  1  0
 15 16  1  0
 15 17  2  0
 17 10  1  0
  9 18  1  0
 18 19  1  1
 19 20  1  0
 20 21  2  0
 20 22  1  0
 22 23  2  0
 24 23  1  4
 24 25  1  0
 25 26  2  0
 26 27  1  0
 26 28  1  0
 28 29  2  0
 29 30  1  0
 30 25  1  0
 30 31  1  0
 24 32  2  0
 32 33  1  0
 32 34  1  0
 34 22  1  0
 18 35  1  0
 35 36  1  0
 36  7  1  0
M  END
> <assay_chembl_id>
CHEMBL4407363

> <assay_description>
Antiproliferative activity against human LNCAP cells

> <document_journal>
J Med Chem

> <molecule_chembl_id>
CHEMBL4460525

> <standard_value>
130

> <IC50_uM>
0.13

> <Activity>
Yes

> <Canonical_Smiles>
CC(=O)NCC[C@@H]1C[C@@H](c2ccc(F)c(F)c2)[C@H](NC(=O)c2cc(-c3c(Cl)cnn3C)c(Cl)o2)CN1

$$$$

  SciTegic03142313312D

 37 40  0  0  1  0            999 V2000
    9.4998   -4.4591    0.0000 C   0  0
    9.9363   -3.0240    0.0000 N   0  0
   11.3501   -2.5229    0.0000 N   0  0
   11.3105   -1.0234    0.0000 C   0  0
    9.8721   -0.5978    0.0000 C   0  0
    9.3624    0.8129    0.0000 Cl  0  0
    9.0479   -1.8300    0.0000 C   0  0
    7.5554   -1.9869    0.0000 C   0  0
    6.5517   -0.8722    0.0000 C   0  0
    5.2003   -1.4932    0.0000 C   0  0
    3.8990   -0.7455    0.0000 C   0  0
    3.8964    0.7545    0.0000 O   0  0
    2.6003   -1.4977    0.0000 N   0  0
    1.2990   -0.7500    0.0000 C   0  0  2  0  0  0
    1.2990    0.7500    0.0000 C   0  0
    0.0000    1.5000    0.0000 N   0  0
   -1.2990    0.7500    0.0000 C   0  0  2  0  0  0
   -2.5973    1.5031    0.0000 C   0  0
   -2.5951    3.0039    0.0000 C   0  0
   -3.8933    3.7570    0.0000 N   0  0
   -3.8912    5.2578    0.0000 S   0  0
   -2.5909    6.0055    0.0000 C   0  0
   -5.1887    6.0105    0.0000 O   0  0
   -3.8884    6.7578    0.0000 O   0  0
   -1.2990   -0.7500    0.0000 C   0  0
    0.0000   -1.5000    0.0000 C   0  0  1  0  0  0
    0.0000   -3.0008    0.0000 C   0  0
    1.2979   -3.7529    0.0000 C   0  0
    1.2955   -5.2529    0.0000 C   0  0
   -0.0047   -6.0009    0.0000 C   0  0
   -0.0071   -7.5009    0.0000 F   0  0
   -1.3026   -5.2488    0.0000 C   0  0
   -2.6028   -5.9967    0.0000 F   0  0
   -1.3002   -3.7488    0.0000 C   0  0
    5.3382   -2.9741    0.0000 O   0  0
    6.8054   -3.2859    0.0000 C   0  0
    7.4155   -4.6562    0.0000 Cl  0  0
  1  2  1  0
  2  3  1  0
  3  4  2  0
  4  5  1  0
  5  6  1  0
  5  7  2  0
  7  2  1  4
  7  8  1  0
  8  9  1  0
  9 10  2  0
 10 11  1  0
 11 12  2  0
 11 13  1  0
 14 13  1  1
 14 15  1  0
 15 16  1  0
 16 17  1  0
 17 18  1  1
 18 19  1  0
 19 20  1  0
 20 21  1  0
 21 22  1  0
 21 23  2  0
 21 24  2  0
 17 25  1  0
 25 26  1  0
 26 14  1  0
 26 27  1  6
 27 28  2  0
 28 29  1  0
 29 30  2  0
 30 31  1  0
 30 32  1  0
 32 33  1  0
 32 34  2  0
 34 27  1  0
 10 35  1  0
 35 36  1  0
 36  8  2  0
 36 37  1  0
M  END
> <assay_chembl_id>
CHEMBL4407363

> <assay_description>
Antiproliferative activity against human LNCAP cells

> <document_journal>
J Med Chem

> <molecule_chembl_id>
CHEMBL4441416

> <standard_value>
50

> <IC50_uM>
0.05

> <Activity>
Yes

> <Canonical_Smiles>
Cn1ncc(Cl)c1-c1cc(C(=O)N[C@@H]2CN[C@H](CCNS(C)(=O)=O)C[C@H]2c2ccc(F)c(F)c2)oc1Cl

$$$$

  SciTegic03142313312D

 35 38  0  0  1  0            999 V2000
    3.8912   -5.2570    0.0000 C   0  0
    3.8933   -3.7570    0.0000 N   0  0
    2.5951   -3.0039    0.0000 C   0  0
    1.2948   -3.7516    0.0000 O   0  0
    2.5973   -1.5031    0.0000 C   0  0
    1.2990   -0.7500    0.0000 C   0  0  2  0  0  0
    1.2990    0.7500    0.0000 C   0  0
    0.0000    1.5000    0.0000 C   0  0  1  0  0  0
    0.0000    3.0008    0.0000 C   0  0
   -1.2979    3.7529    0.0000 C   0  0
   -1.2955    5.2529    0.0000 C   0  0
    0.0047    6.0009    0.0000 C   0  0
    0.0071    7.5009    0.0000 F   0  0
    1.3026    5.2488    0.0000 C   0  0
    2.6028    5.9968    0.0000 F   0  0
    1.3002    3.7488    0.0000 C   0  0
   -1.2990    0.7500    0.0000 C   0  0  2  0  0  0
   -2.5973    1.5031    0.0000 N   0  0
   -3.8990    0.7562    0.0000 C   0  0
   -3.9026   -0.7438    0.0000 O   0  0
   -5.1972    1.5092    0.0000 C   0  0
   -6.5512    0.8938    0.0000 C   0  0
   -7.5503    2.0126    0.0000 C   0  0
   -9.0434    1.8619    0.0000 C   0  0
   -9.8727    0.6330    0.0000 C   0  0
   -9.3687   -0.7798    0.0000 Cl  0  0
  -11.3093    1.0646    0.0000 C   0  0
  -11.3427    2.5642    0.0000 N   0  0
   -9.9269    3.0595    0.0000 N   0  0
   -9.4845    4.4927    0.0000 C   0  0
   -6.7949    3.3085    0.0000 C   0  0
   -7.3994    4.6814    0.0000 Cl  0  0
   -5.3290    2.9907    0.0000 O   0  0
   -1.2990   -0.7500    0.0000 C   0  0
    0.0000   -1.5000    0.0000 N   0  0
  1  2  1  0
  2  3  1  0
  3  4  2  0
  3  5  1  0
  6  5  1  1
  6  7  1  0
  7  8  1  0
  8  9  1  6
  9 10  2  0
 10 11  1  0
 11 12  2  0
 12 13  1  0
 12 14  1  0
 14 15  1  0
 14 16  2  0
 16  9  1  0
  8 17  1  0
 17 18  1  1
 18 19  1  0
 19 20  2  0
 19 21  1  0
 21 22  2  0
 23 22  1  4
 23 24  1  0
 24 25  2  0
 25 26  1  0
 25 27  1  0
 27 28  2  0
 28 29  1  0
 29 24  1  0
 29 30  1  0
 23 31  2  0
 31 32  1  0
 31 33  1  0
 33 21  1  0
 17 34  1  0
 34 35  1  0
 35  6  1  0
M  END
> <assay_chembl_id>
CHEMBL4407363

> <assay_description>
Antiproliferative activity against human LNCAP cells

> <document_journal>
J Med Chem

> <molecule_chembl_id>
CHEMBL4440965

> <standard_value>
50

> <IC50_uM>
0.05

> <Activity>
Yes

> <Canonical_Smiles>
CNC(=O)C[C@@H]1C[C@@H](c2ccc(F)c(F)c2)[C@H](NC(=O)c2cc(-c3c(Cl)cnn3C)c(Cl)o2)CN1

$$$$

  SciTegic03142313312D

 35 38  0  0  1  0            999 V2000
    9.4998   -4.4591    0.0000 C   0  0
    9.9363   -3.0240    0.0000 N   0  0
   11.3501   -2.5229    0.0000 N   0  0
   11.3105   -1.0234    0.0000 C   0  0
    9.8721   -0.5978    0.0000 C   0  0
    9.3624    0.8129    0.0000 Cl  0  0
    9.0479   -1.8300    0.0000 C   0  0
    7.5554   -1.9869    0.0000 C   0  0
    6.5517   -0.8722    0.0000 C   0  0
    5.2003   -1.4932    0.0000 C   0  0
    3.8990   -0.7455    0.0000 C   0  0
    3.8964    0.7545    0.0000 O   0  0
    2.6003   -1.4977    0.0000 N   0  0
    1.2990   -0.7500    0.0000 C   0  0  2  0  0  0
    1.2990    0.7500    0.0000 C   0  0
    0.0000    1.5000    0.0000 N   0  0
   -1.2990    0.7500    0.0000 C   0  0  2  0  0  0
   -2.5973    1.5031    0.0000 C   0  0
   -2.5951    3.0039    0.0000 C   0  0  3  0  0  0
   -1.2948    3.7516    0.0000 O   0  0
   -3.8933    3.7570    0.0000 C   0  0
   -3.8912    5.2570    0.0000 O   0  0
   -1.2990   -0.7500    0.0000 C   0  0
    0.0000   -1.5000    0.0000 C   0  0  1  0  0  0
    0.0000   -3.0008    0.0000 C   0  0
    1.2979   -3.7529    0.0000 C   0  0
    1.2955   -5.2529    0.0000 C   0  0
   -0.0047   -6.0009    0.0000 C   0  0
   -0.0071   -7.5009    0.0000 F   0  0
   -1.3026   -5.2488    0.0000 C   0  0
   -2.6028   -5.9967    0.0000 F   0  0
   -1.3002   -3.7488    0.0000 C   0  0
    5.3382   -2.9741    0.0000 O   0  0
    6.8054   -3.2859    0.0000 C   0  0
    7.4155   -4.6562    0.0000 Cl  0  0
  1  2  1  0
  2  3  1  0
  3  4  2  0
  4  5  1  0
  5  6  1  0
  5  7  2  0
  7  2  1  4
  7  8  1  0
  8  9  1  0
  9 10  2  0
 10 11  1  0
 11 12  2  0
 11 13  1  0
 14 13  1  1
 14 15  1  0
 15 16  1  0
 16 17  1  0
 17 18  1  1
 18 19  1  0
 19 20  1  4
 19 21  1  0
 21 22  1  0
 17 23  1  0
 23 24  1  0
 24 14  1  0
 24 25  1  6
 25 26  2  0
 26 27  1  0
 27 28  2  0
 28 29  1  0
 28 30  1  0
 30 31  1  0
 30 32  2  0
 32 25  1  0
 10 33  1  0
 33 34  1  0
 34  8  2  0
 34 35  1  0
M  END
> <assay_chembl_id>
CHEMBL4407363

> <assay_description>
Antiproliferative activity against human LNCAP cells

> <document_journal>
J Med Chem

> <molecule_chembl_id>
CHEMBL4567295

> <standard_value>
100

> <IC50_uM>
0.1

> <Activity>
Yes

> <Canonical_Smiles>
Cn1ncc(Cl)c1-c1cc(C(=O)N[C@@H]2CN[C@H](CC(O)CO)C[C@H]2c2ccc(F)c(F)c2)oc1Cl

$$$$

  SciTegic03142313312D

 33 36  0  0  1  0            999 V2000
    9.4998   -4.4591    0.0000 C   0  0
    9.9363   -3.0240    0.0000 N   0  0
   11.3501   -2.5229    0.0000 N   0  0
   11.3105   -1.0234    0.0000 C   0  0
    9.8721   -0.5978    0.0000 C   0  0
    9.3624    0.8129    0.0000 Cl  0  0
    9.0479   -1.8300    0.0000 C   0  0
    7.5554   -1.9869    0.0000 C   0  0
    6.5517   -0.8722    0.0000 C   0  0
    5.2003   -1.4932    0.0000 C   0  0
    3.8990   -0.7455    0.0000 C   0  0
    3.8964    0.7545    0.0000 O   0  0
    2.6003   -1.4977    0.0000 N   0  0
    1.2990   -0.7500    0.0000 C   0  0  2  0  0  0
    1.2990    0.7500    0.0000 C   0  0
    0.0000    1.5000    0.0000 N   0  0
   -1.2990    0.7500    0.0000 C   0  0  2  0  0  0
   -2.5973    1.5031    0.0000 C   0  0
   -2.5951    3.0039    0.0000 C   0  0
   -3.8926    3.7566    0.0000 O   0  0
   -1.2990   -0.7500    0.0000 C   0  0
    0.0000   -1.5000    0.0000 C   0  0  1  0  0  0
    0.0000   -3.0008    0.0000 C   0  0
    1.2979   -3.7529    0.0000 C   0  0
    1.2955   -5.2529    0.0000 C   0  0
   -0.0047   -6.0009    0.0000 C   0  0
   -0.0071   -7.5009    0.0000 F   0  0
   -1.3026   -5.2488    0.0000 C   0  0
   -2.6028   -5.9967    0.0000 F   0  0
   -1.3002   -3.7488    0.0000 C   0  0
    5.3382   -2.9741    0.0000 O   0  0
    6.8054   -3.2859    0.0000 C   0  0
    7.4155   -4.6562    0.0000 Cl  0  0
  1  2  1  0
  2  3  1  0
  3  4  2  0
  4  5  1  0
  5  6  1  0
  5  7  2  0
  7  2  1  4
  7  8  1  0
  8  9  1  0
  9 10  2  0
 10 11  1  0
 11 12  2  0
 11 13  1  0
 14 13  1  1
 14 15  1  0
 15 16  1  0
 16 17  1  0
 17 18  1  1
 18 19  1  0
 19 20  1  0
 17 21  1  0
 21 22  1  0
 22 14  1  0
 22 23  1  6
 23 24  2  0
 24 25  1  0
 25 26  2  0
 26 27  1  0
 26 28  1  0
 28 29  1  0
 28 30  2  0
 30 23  1  0
 10 31  1  0
 31 32  1  0
 32  8  2  0
 32 33  1  0
M  END
> <assay_chembl_id>
CHEMBL4407363

> <assay_description>
Antiproliferative activity against human LNCAP cells

> <document_journal>
J Med Chem

> <molecule_chembl_id>
CHEMBL4441825

> <standard_value>
60

> <IC50_uM>
0.06

> <Activity>
Yes

> <Canonical_Smiles>
Cn1ncc(Cl)c1-c1cc(C(=O)N[C@@H]2CN[C@H](CCO)C[C@H]2c2ccc(F)c(F)c2)oc1Cl

$$$$

  SciTegic03142313312D

 39 42  0  0  1  0            999 V2000
    9.4998   -4.4591    0.0000 C   0  0
    9.9363   -3.0240    0.0000 N   0  0
   11.3501   -2.5229    0.0000 N   0  0
   11.3105   -1.0234    0.0000 C   0  0
    9.8721   -0.5978    0.0000 C   0  0
    9.3624    0.8129    0.0000 Cl  0  0
    9.0479   -1.8300    0.0000 C   0  0
    7.5554   -1.9869    0.0000 C   0  0
    6.5517   -0.8722    0.0000 C   0  0
    5.2003   -1.4932    0.0000 C   0  0
    3.8990   -0.7455    0.0000 C   0  0
    3.8964    0.7545    0.0000 O   0  0
    2.6003   -1.4977    0.0000 N   0  0
    1.2990   -0.7500    0.0000 C   0  0  2  0  0  0
    1.2990    0.7500    0.0000 C   0  0
    0.0000    1.5000    0.0000 N   0  0
   -1.2990    0.7500    0.0000 C   0  0  2  0  0  0
   -2.5973    1.5031    0.0000 C   0  0
   -2.5951    3.0039    0.0000 C   0  0
   -1.2948    3.7516    0.0000 O   0  0
   -3.8933    3.7570    0.0000 N   0  0
   -3.8912    5.2578    0.0000 C   0  0
   -5.1894    6.0109    0.0000 C   0  0  3  0  0  0
   -6.4898    5.2631    0.0000 O   0  0
   -5.1873    7.5117    0.0000 C   0  0
   -6.4848    8.2644    0.0000 O   0  0
   -1.2990   -0.7500    0.0000 C   0  0
    0.0000   -1.5000    0.0000 C   0  0  1  0  0  0
    0.0000   -3.0008    0.0000 C   0  0
    1.2979   -3.7529    0.0000 C   0  0
    1.2955   -5.2529    0.0000 C   0  0
   -0.0047   -6.0009    0.0000 C   0  0
   -0.0071   -7.5009    0.0000 Cl  0  0
   -1.3026   -5.2488    0.0000 C   0  0
   -2.6028   -5.9967    0.0000 Cl  0  0
   -1.3002   -3.7488    0.0000 C   0  0
    5.3382   -2.9741    0.0000 O   0  0
    6.8054   -3.2859    0.0000 C   0  0
    7.4155   -4.6562    0.0000 Cl  0  0
  1  2  1  0
  2  3  1  0
  3  4  2  0
  4  5  1  0
  5  6  1  0
  5  7  2  0
  7  2  1  4
  7  8  1  0
  8  9  1  0
  9 10  2  0
 10 11  1  0
 11 12  2  0
 11 13  1  0
 14 13  1  1
 14 15  1  0
 15 16  1  0
 16 17  1  0
 17 18  1  1
 18 19  1  0
 19 20  2  0
 19 21  1  0
 21 22  1  0
 22 23  1  0
 23 24  1  4
 23 25  1  0
 25 26  1  0
 17 27  1  0
 27 28  1  0
 28 14  1  0
 28 29  1  6
 29 30  2  0
 30 31  1  0
 31 32  2  0
 32 33  1  0
 32 34  1  0
 34 35  1  0
 34 36  2  0
 36 29  1  0
 10 37  1  0
 37 38  1  0
 38  8  2  0
 38 39  1  0
M  END
> <assay_chembl_id>
CHEMBL4407363

> <assay_description>
Antiproliferative activity against human LNCAP cells

> <document_journal>
J Med Chem

> <molecule_chembl_id>
CHEMBL4593086

> <standard_value>
660

> <IC50_uM>
0.66

> <Activity>
Yes

> <Canonical_Smiles>
Cn1ncc(Cl)c1-c1cc(C(=O)N[C@@H]2CN[C@H](CC(=O)NCC(O)CO)C[C@H]2c2ccc(Cl)c(Cl)c2)oc1Cl

$$$$

  SciTegic03142313312D

 37 40  0  0  1  0            999 V2000
    9.4998   -4.4591    0.0000 C   0  0
    9.9363   -3.0240    0.0000 N   0  0
   11.3501   -2.5229    0.0000 N   0  0
   11.3105   -1.0234    0.0000 C   0  0
    9.8721   -0.5978    0.0000 C   0  0
    9.3624    0.8129    0.0000 Cl  0  0
    9.0479   -1.8300    0.0000 C   0  0
    7.5554   -1.9869    0.0000 C   0  0
    6.5517   -0.8722    0.0000 C   0  0
    5.2003   -1.4932    0.0000 C   0  0
    3.8990   -0.7455    0.0000 C   0  0
    3.8964    0.7545    0.0000 O   0  0
    2.6003   -1.4977    0.0000 N   0  0
    1.2990   -0.7500    0.0000 C   0  0  2  0  0  0
    1.2990    0.7500    0.0000 C   0  0
    0.0000    1.5000    0.0000 N   0  0
   -1.2990    0.7500    0.0000 C   0  0  2  0  0  0
   -2.5973    1.5031    0.0000 C   0  0
   -2.5951    3.0039    0.0000 C   0  0
   -1.2948    3.7516    0.0000 O   0  0
   -3.8933    3.7570    0.0000 N   0  0
   -3.8912    5.2578    0.0000 C   0  0
   -5.1894    6.0109    0.0000 C   0  0
   -5.1873    7.5109    0.0000 O   0  0
   -1.2990   -0.7500    0.0000 C   0  0
    0.0000   -1.5000    0.0000 C   0  0  1  0  0  0
    0.0000   -3.0008    0.0000 C   0  0
    1.2979   -3.7529    0.0000 C   0  0
    1.2955   -5.2529    0.0000 C   0  0
   -0.0047   -6.0009    0.0000 C   0  0
   -0.0071   -7.5009    0.0000 Cl  0  0
   -1.3026   -5.2488    0.0000 C   0  0
   -2.6028   -5.9967    0.0000 Cl  0  0
   -1.3002   -3.7488    0.0000 C   0  0
    5.3382   -2.9741    0.0000 O   0  0
    6.8054   -3.2859    0.0000 C   0  0
    7.4155   -4.6562    0.0000 Cl  0  0
  1  2  1  0
  2  3  1  0
  3  4  2  0
  4  5  1  0
  5  6  1  0
  5  7  2  0
  7  2  1  4
  7  8  1  0
  8  9  1  0
  9 10  2  0
 10 11  1  0
 11 12  2  0
 11 13  1  0
 14 13  1  1
 14 15  1  0
 15 16  1  0
 16 17  1  0
 17 18  1  1
 18 19  1  0
 19 20  2  0
 19 21  1  0
 21 22  1  0
 22 23  1  0
 23 24  1  0
 17 25  1  0
 25 26  1  0
 26 14  1  0
 26 27  1  6
 27 28  2  0
 28 29  1  0
 29 30  2  0
 30 31  1  0
 30 32  1  0
 32 33  1  0
 32 34  2  0
 34 27  1  0
 10 35  1  0
 35 36  1  0
 36  8  2  0
 36 37  1  0
M  END
> <assay_chembl_id>
CHEMBL4407363

> <assay_description>
Antiproliferative activity against human LNCAP cells

> <document_journal>
J Med Chem

> <molecule_chembl_id>
CHEMBL4554668

> <standard_value>
40

> <IC50_uM>
0.04

> <Activity>
Yes

> <Canonical_Smiles>
Cn1ncc(Cl)c1-c1cc(C(=O)N[C@@H]2CN[C@H](CC(=O)NCCO)C[C@H]2c2ccc(Cl)c(Cl)c2)oc1Cl

$$$$

  SciTegic03142313312D

 38 42  0  0  1  0            999 V2000
    9.4998   -4.4591    0.0000 C   0  0
    9.9363   -3.0240    0.0000 N   0  0
   11.3501   -2.5229    0.0000 N   0  0
   11.3105   -1.0234    0.0000 C   0  0
    9.8721   -0.5978    0.0000 C   0  0
    9.3624    0.8129    0.0000 Cl  0  0
    9.0479   -1.8300    0.0000 C   0  0
    7.5554   -1.9869    0.0000 C   0  0
    6.5517   -0.8722    0.0000 C   0  0
    5.2003   -1.4932    0.0000 C   0  0
    3.8990   -0.7455    0.0000 C   0  0
    3.8964    0.7545    0.0000 O   0  0
    2.6003   -1.4977    0.0000 N   0  0
    1.2990   -0.7500    0.0000 C   0  0  2  0  0  0
    1.2990    0.7500    0.0000 C   0  0
    0.0000    1.5000    0.0000 N   0  0
   -1.2990    0.7500    0.0000 C   0  0  2  0  0  0
   -2.5973    1.5031    0.0000 C   0  0
   -2.5951    3.0039    0.0000 C   0  0
   -1.2948    3.7516    0.0000 O   0  0
   -3.8933    3.7570    0.0000 N   0  0
   -3.8912    5.2578    0.0000 C   0  0
   -4.9483    6.2705    0.0000 C   0  0
   -3.8840    7.3274    0.0000 C   0  0
   -2.8270    6.2631    0.0000 C   0  0
   -1.2990   -0.7500    0.0000 C   0  0
    0.0000   -1.5000    0.0000 C   0  0  1  0  0  0
    0.0000   -3.0008    0.0000 C   0  0
    1.2979   -3.7529    0.0000 C   0  0
    1.2955   -5.2529    0.0000 C   0  0
   -0.0047   -6.0009    0.0000 C   0  0
   -0.0071   -7.5009    0.0000 Cl  0  0
   -1.3026   -5.2488    0.0000 C   0  0
   -2.6028   -5.9967    0.0000 Cl  0  0
   -1.3002   -3.7488    0.0000 C   0  0
    5.3382   -2.9741    0.0000 O   0  0
    6.8054   -3.2859    0.0000 C   0  0
    7.4155   -4.6562    0.0000 Cl  0  0
  1  2  1  0
  2  3  1  0
  3  4  2  0
  4  5  1  0
  5  6  1  0
  5  7  2  0
  7  2  1  4
  7  8  1  0
  8  9  1  0
  9 10  2  0
 10 11  1  0
 11 12  2  0
 11 13  1  0
 14 13  1  1
 14 15  1  0
 15 16  1  0
 16 17  1  0
 17 18  1  1
 18 19  1  0
 19 20  2  0
 19 21  1  0
 21 22  1  0
 22 23  1  0
 23 24  1  0
 24 25  1  0
 25 22  1  0
 17 26  1  0
 26 27  1  0
 27 14  1  0
 27 28  1  6
 28 29  2  0
 29 30  1  0
 30 31  2  0
 31 32  1  0
 31 33  1  0
 33 34  1  0
 33 35  2  0
 35 28  1  0
 10 36  1  0
 36 37  1  0
 37  8  2  0
 37 38  1  0
M  END
> <assay_chembl_id>
CHEMBL4407363

> <assay_description>
Antiproliferative activity against human LNCAP cells

> <document_journal>
J Med Chem

> <molecule_chembl_id>
CHEMBL4447158

> <standard_value>
80

> <IC50_uM>
0.08

> <Activity>
Yes

> <Canonical_Smiles>
Cn1ncc(Cl)c1-c1cc(C(=O)N[C@@H]2CN[C@H](CC(=O)NC3CCC3)C[C@H]2c2ccc(Cl)c(Cl)c2)oc1Cl

$$$$

  SciTegic03142313312D

 37 41  0  0  1  0            999 V2000
    9.4998   -4.4591    0.0000 C   0  0
    9.9363   -3.0240    0.0000 N   0  0
   11.3501   -2.5229    0.0000 N   0  0
   11.3105   -1.0234    0.0000 C   0  0
    9.8721   -0.5978    0.0000 C   0  0
    9.3624    0.8129    0.0000 Cl  0  0
    9.0479   -1.8300    0.0000 C   0  0
    7.5554   -1.9869    0.0000 C   0  0
    6.5517   -0.8722    0.0000 C   0  0
    5.2003   -1.4932    0.0000 C   0  0
    3.8990   -0.7455    0.0000 C   0  0
    3.8964    0.7545    0.0000 O   0  0
    2.6003   -1.4977    0.0000 N   0  0
    1.2990   -0.7500    0.0000 C   0  0  2  0  0  0
    1.2990    0.7500    0.0000 C   0  0
    0.0000    1.5000    0.0000 N   0  0
   -1.2990    0.7500    0.0000 C   0  0  2  0  0  0
   -2.5973    1.5031    0.0000 C   0  0
   -2.5951    3.0039    0.0000 C   0  0
   -1.2948    3.7516    0.0000 O   0  0
   -3.8933    3.7570    0.0000 N   0  0
   -3.8912    5.2578    0.0000 C   0  0
   -4.6369    6.4681    0.0000 C   0  0
   -3.1369    6.4628    0.0000 C   0  0
   -1.2990   -0.7500    0.0000 C   0  0
    0.0000   -1.5000    0.0000 C   0  0  1  0  0  0
    0.0000   -3.0008    0.0000 C   0  0
    1.2979   -3.7529    0.0000 C   0  0
    1.2955   -5.2529    0.0000 C   0  0
   -0.0047   -6.0009    0.0000 C   0  0
   -0.0071   -7.5009    0.0000 Cl  0  0
   -1.3026   -5.2488    0.0000 C   0  0
   -2.6028   -5.9967    0.0000 Cl  0  0
   -1.3002   -3.7488    0.0000 C   0  0
    5.3382   -2.9741    0.0000 O   0  0
    6.8054   -3.2859    0.0000 C   0  0
    7.4155   -4.6562    0.0000 Cl  0  0
  1  2  1  0
  2  3  1  0
  3  4  2  0
  4  5  1  0
  5  6  1  0
  5  7  2  0
  7  2  1  4
  7  8  1  0
  8  9  1  0
  9 10  2  0
 10 11  1  0
 11 12  2  0
 11 13  1  0
 14 13  1  1
 14 15  1  0
 15 16  1  0
 16 17  1  0
 17 18  1  1
 18 19  1  0
 19 20  2  0
 19 21  1  0
 21 22  1  0
 22 23  1  0
 23 24  1  0
 24 22  1  0
 17 25  1  0
 25 26  1  0
 26 14  1  0
 26 27  1  6
 27 28  2  0
 28 29  1  0
 29 30  2  0
 30 31  1  0
 30 32  1  0
 32 33  1  0
 32 34  2  0
 34 27  1  0
 10 35  1  0
 35 36  1  0
 36  8  2  0
 36 37  1  0
M  END
> <assay_chembl_id>
CHEMBL4407363

> <assay_description>
Antiproliferative activity against human LNCAP cells

> <document_journal>
J Med Chem

> <molecule_chembl_id>
CHEMBL4589576

> <standard_value>
190

> <IC50_uM>
0.19

> <Activity>
Yes

> <Canonical_Smiles>
Cn1ncc(Cl)c1-c1cc(C(=O)N[C@@H]2CN[C@H](CC(=O)NC3CC3)C[C@H]2c2ccc(Cl)c(Cl)c2)oc1Cl

$$$$

  SciTegic03142313312D

 35 38  0  0  1  0            999 V2000
    3.8912   -5.2570    0.0000 C   0  0
    3.8933   -3.7570    0.0000 N   0  0
    2.5951   -3.0039    0.0000 C   0  0
    1.2948   -3.7516    0.0000 O   0  0
    2.5973   -1.5031    0.0000 C   0  0
    1.2990   -0.7500    0.0000 C   0  0  2  0  0  0
    1.2990    0.7500    0.0000 C   0  0
    0.0000    1.5000    0.0000 C   0  0  1  0  0  0
    0.0000    3.0008    0.0000 C   0  0
   -1.2979    3.7529    0.0000 C   0  0
   -1.2955    5.2529    0.0000 C   0  0
    0.0047    6.0009    0.0000 C   0  0
    0.0071    7.5009    0.0000 Cl  0  0
    1.3026    5.2488    0.0000 C   0  0
    2.6028    5.9968    0.0000 Cl  0  0
    1.3002    3.7488    0.0000 C   0  0
   -1.2990    0.7500    0.0000 C   0  0  2  0  0  0
   -2.5973    1.5031    0.0000 N   0  0
   -3.8990    0.7562    0.0000 C   0  0
   -3.9026   -0.7438    0.0000 O   0  0
   -5.1972    1.5092    0.0000 C   0  0
   -6.5512    0.8938    0.0000 C   0  0
   -7.5503    2.0126    0.0000 C   0  0
   -9.0434    1.8619    0.0000 C   0  0
   -9.8727    0.6330    0.0000 C   0  0
   -9.3687   -0.7798    0.0000 Cl  0  0
  -11.3093    1.0646    0.0000 C   0  0
  -11.3427    2.5642    0.0000 N   0  0
   -9.9269    3.0595    0.0000 N   0  0
   -9.4845    4.4927    0.0000 C   0  0
   -6.7949    3.3085    0.0000 C   0  0
   -7.3994    4.6814    0.0000 Cl  0  0
   -5.3290    2.9907    0.0000 O   0  0
   -1.2990   -0.7500    0.0000 C   0  0
    0.0000   -1.5000    0.0000 N   0  0
  1  2  1  0
  2  3  1  0
  3  4  2  0
  3  5  1  0
  6  5  1  1
  6  7  1  0
  7  8  1  0
  8  9  1  6
  9 10  2  0
 10 11  1  0
 11 12  2  0
 12 13  1  0
 12 14  1  0
 14 15  1  0
 14 16  2  0
 16  9  1  0
  8 17  1  0
 17 18  1  1
 18 19  1  0
 19 20  2  0
 19 21  1  0
 21 22  2  0
 23 22  1  4
 23 24  1  0
 24 25  2  0
 25 26  1  0
 25 27  1  0
 27 28  2  0
 28 29  1  0
 29 24  1  0
 29 30  1  0
 23 31  2  0
 31 32  1  0
 31 33  1  0
 33 21  1  0
 17 34  1  0
 34 35  1  0
 35  6  1  0
M  END
> <assay_chembl_id>
CHEMBL4407363

> <assay_description>
Antiproliferative activity against human LNCAP cells

> <document_journal>
J Med Chem

> <molecule_chembl_id>
CHEMBL4475923

> <standard_value>
40

> <IC50_uM>
0.04

> <Activity>
Yes

> <Canonical_Smiles>
CNC(=O)C[C@@H]1C[C@@H](c2ccc(Cl)c(Cl)c2)[C@H](NC(=O)c2cc(-c3c(Cl)cnn3C)c(Cl)o2)CN1

$$$$

  SciTegic03142313312D

 34 37  0  0  1  0            999 V2000
    9.4998   -4.4591    0.0000 C   0  0
    9.9363   -3.0240    0.0000 N   0  0
   11.3501   -2.5229    0.0000 N   0  0
   11.3105   -1.0234    0.0000 C   0  0
    9.8721   -0.5978    0.0000 C   0  0
    9.3624    0.8129    0.0000 Cl  0  0
    9.0479   -1.8300    0.0000 C   0  0
    7.5554   -1.9869    0.0000 C   0  0
    6.5517   -0.8722    0.0000 C   0  0
    5.2003   -1.4932    0.0000 C   0  0
    3.8990   -0.7455    0.0000 C   0  0
    3.8964    0.7545    0.0000 O   0  0
    2.6003   -1.4977    0.0000 N   0  0
    1.2990   -0.7500    0.0000 C   0  0  2  0  0  0
    1.2990    0.7500    0.0000 C   0  0
    0.0000    1.5000    0.0000 N   0  0
   -1.2990    0.7500    0.0000 C   0  0  2  0  0  0
   -2.5973    1.5031    0.0000 C   0  0
   -2.5951    3.0039    0.0000 C   0  0
   -1.2948    3.7516    0.0000 N   0  0
   -3.8926    3.7566    0.0000 O   0  0
   -1.2990   -0.7500    0.0000 C   0  0
    0.0000   -1.5000    0.0000 C   0  0  1  0  0  0
    0.0000   -3.0008    0.0000 C   0  0
    1.2979   -3.7529    0.0000 C   0  0
    1.2955   -5.2529    0.0000 C   0  0
   -0.0047   -6.0009    0.0000 C   0  0
   -0.0071   -7.5009    0.0000 Cl  0  0
   -1.3026   -5.2488    0.0000 C   0  0
   -2.6028   -5.9967    0.0000 Cl  0  0
   -1.3002   -3.7488    0.0000 C   0  0
    5.3382   -2.9741    0.0000 O   0  0
    6.8054   -3.2859    0.0000 C   0  0
    7.4155   -4.6562    0.0000 Cl  0  0
  1  2  1  0
  2  3  1  0
  3  4  2  0
  4  5  1  0
  5  6  1  0
  5  7  2  0
  7  2  1  4
  7  8  1  0
  8  9  1  0
  9 10  2  0
 10 11  1  0
 11 12  2  0
 11 13  1  0
 14 13  1  1
 14 15  1  0
 15 16  1  0
 16 17  1  0
 17 18  1  1
 18 19  1  0
 19 20  1  0
 19 21  2  0
 17 22  1  0
 22 23  1  0
 23 14  1  0
 23 24  1  6
 24 25  2  0
 25 26  1  0
 26 27  2  0
 27 28  1  0
 27 29  1  0
 29 30  1  0
 29 31  2  0
 31 24  1  0
 10 32  1  0
 32 33  1  0
 33  8  2  0
 33 34  1  0
M  END
> <assay_chembl_id>
CHEMBL4407363

> <assay_description>
Antiproliferative activity against human LNCAP cells

> <document_journal>
J Med Chem

> <molecule_chembl_id>
CHEMBL4438877

> <standard_value>
160

> <IC50_uM>
0.16

> <Activity>
Yes

> <Canonical_Smiles>
Cn1ncc(Cl)c1-c1cc(C(=O)N[C@@H]2CN[C@H](CC(N)=O)C[C@H]2c2ccc(Cl)c(Cl)c2)oc1Cl

$$$$

  SciTegic03142313312D

 34 37  0  0  1  0            999 V2000
    9.4998   -4.4591    0.0000 C   0  0
    9.9363   -3.0240    0.0000 N   0  0
   11.3501   -2.5229    0.0000 N   0  0
   11.3105   -1.0234    0.0000 C   0  0
    9.8721   -0.5978    0.0000 C   0  0
    9.3624    0.8129    0.0000 Cl  0  0
    9.0479   -1.8300    0.0000 C   0  0
    7.5554   -1.9869    0.0000 C   0  0
    6.5517   -0.8722    0.0000 C   0  0
    5.2003   -1.4932    0.0000 C   0  0
    3.8990   -0.7455    0.0000 C   0  0
    3.8964    0.7545    0.0000 O   0  0
    2.6003   -1.4977    0.0000 N   0  0
    1.2990   -0.7500    0.0000 C   0  0  2  0  0  0
    1.2990    0.7500    0.0000 C   0  0
    0.0000    1.5000    0.0000 N   0  0
   -1.2990    0.7500    0.0000 C   0  0  2  0  0  0
   -2.5973    1.5031    0.0000 C   0  0
   -2.5951    3.0039    0.0000 C   0  0
   -3.8926    3.7566    0.0000 O   0  0
   -1.2948    3.7516    0.0000 O   0  0
   -1.2990   -0.7500    0.0000 C   0  0
    0.0000   -1.5000    0.0000 C   0  0  1  0  0  0
    0.0000   -3.0008    0.0000 C   0  0
    1.2979   -3.7529    0.0000 C   0  0
    1.2955   -5.2529    0.0000 C   0  0
   -0.0047   -6.0009    0.0000 C   0  0
   -0.0071   -7.5009    0.0000 Cl  0  0
   -1.3026   -5.2488    0.0000 C   0  0
   -2.6028   -5.9967    0.0000 Cl  0  0
   -1.3002   -3.7488    0.0000 C   0  0
    5.3382   -2.9741    0.0000 O   0  0
    6.8054   -3.2859    0.0000 C   0  0
    7.4155   -4.6562    0.0000 Cl  0  0
  1  2  1  0
  2  3  1  0
  3  4  2  0
  4  5  1  0
  5  6  1  0
  5  7  2  0
  7  2  1  4
  7  8  1  0
  8  9  1  0
  9 10  2  0
 10 11  1  0
 11 12  2  0
 11 13  1  0
 14 13  1  1
 14 15  1  0
 15 16  1  0
 16 17  1  0
 17 18  1  1
 18 19  1  0
 19 20  2  0
 19 21  1  0
 17 22  1  0
 22 23  1  0
 23 14  1  0
 23 24  1  6
 24 25  2  0
 25 26  1  0
 26 27  2  0
 27 28  1  0
 27 29  1  0
 29 30  1  0
 29 31  2  0
 31 24  1  0
 10 32  1  0
 32 33  1  0
 33  8  2  0
 33 34  1  0
M  END
> <assay_chembl_id>
CHEMBL4407363

> <assay_description>
Antiproliferative activity against human LNCAP cells

> <document_journal>
J Med Chem

> <molecule_chembl_id>
CHEMBL4447967

> <standard_value>
640

> <IC50_uM>
0.64

> <Activity>
Yes

> <Canonical_Smiles>
Cn1ncc(Cl)c1-c1cc(C(=O)N[C@@H]2CN[C@H](CC(=O)O)C[C@H]2c2ccc(Cl)c(Cl)c2)oc1Cl

$$$$

  SciTegic03142313312D

 37 41  0  0  1  0            999 V2000
    9.4998   -4.4591    0.0000 C   0  0
    9.9363   -3.0240    0.0000 N   0  0
   11.3501   -2.5229    0.0000 N   0  0
   11.3105   -1.0234    0.0000 C   0  0
    9.8721   -0.5978    0.0000 C   0  0
    9.3624    0.8129    0.0000 Cl  0  0
    9.0479   -1.8300    0.0000 C   0  0
    7.5554   -1.9869    0.0000 C   0  0
    6.5517   -0.8722    0.0000 C   0  0
    5.2003   -1.4932    0.0000 C   0  0
    3.8990   -0.7455    0.0000 C   0  0
    3.8964    0.7545    0.0000 O   0  0
    2.6003   -1.4977    0.0000 N   0  0
    1.2990   -0.7500    0.0000 C   0  0  2  0  0  0
    1.2990    0.7500    0.0000 C   0  0
    0.0000    1.5000    0.0000 N   0  0
   -1.2990    0.7500    0.0000 C   0  0  2  0  0  0
   -2.5973    1.5031    0.0000 C   0  0
   -2.5951    3.0039    0.0000 C   0  0
   -3.8933    3.7570    0.0000 N   0  0
   -4.0312    5.2378    0.0000 C   0  0
   -5.4984    5.5497    0.0000 N   0  0
   -6.2484    4.2507    0.0000 C   0  0
   -5.2447    3.1359    0.0000 N   0  0
   -1.2990   -0.7500    0.0000 C   0  0
    0.0000   -1.5000    0.0000 C   0  0  1  0  0  0
    0.0000   -3.0008    0.0000 C   0  0
    1.2979   -3.7529    0.0000 C   0  0
    1.2955   -5.2529    0.0000 C   0  0
   -0.0047   -6.0009    0.0000 C   0  0
   -0.0071   -7.5009    0.0000 Cl  0  0
   -1.3026   -5.2488    0.0000 C   0  0
   -2.6028   -5.9967    0.0000 Cl  0  0
   -1.3002   -3.7488    0.0000 C   0  0
    5.3382   -2.9741    0.0000 O   0  0
    6.8054   -3.2859    0.0000 C   0  0
    7.4155   -4.6562    0.0000 Cl  0  0
  1  2  1  0
  2  3  1  0
  3  4  2  0
  4  5  1  0
  5  6  1  0
  5  7  2  0
  7  2  1  4
  7  8  1  0
  8  9  1  0
  9 10  2  0
 10 11  1  0
 11 12  2  0
 11 13  1  0
 14 13  1  1
 14 15  1  0
 15 16  1  0
 16 17  1  0
 17 18  1  1
 18 19  1  0
 19 20  1  0
 20 21  1  0
 21 22  2  0
 22 23  1  0
 23 24  2  0
 24 20  1  0
 17 25  1  0
 25 26  1  0
 26 14  1  0
 26 27  1  6
 27 28  2  0
 28 29  1  0
 29 30  2  0
 30 31  1  0
 30 32  1  0
 32 33  1  0
 32 34  2  0
 34 27  1  0
 10 35  1  0
 35 36  1  0
 36  8  2  0
 36 37  1  0
M  END
> <assay_chembl_id>
CHEMBL4407363

> <assay_description>
Antiproliferative activity against human LNCAP cells

> <document_journal>
J Med Chem

> <molecule_chembl_id>
CHEMBL4519793

> <standard_value>
60

> <IC50_uM>
0.06

> <Activity>
Yes

> <Canonical_Smiles>
Cn1ncc(Cl)c1-c1cc(C(=O)N[C@@H]2CN[C@H](CCn3cncn3)C[C@H]2c2ccc(Cl)c(Cl)c2)oc1Cl

$$$$

  SciTegic03142313312D

 38 42  0  0  1  0            999 V2000
    9.4998   -4.4591    0.0000 C   0  0
    9.9363   -3.0240    0.0000 N   0  0
   11.3501   -2.5229    0.0000 N   0  0
   11.3105   -1.0234    0.0000 C   0  0
    9.8721   -0.5978    0.0000 C   0  0
    9.3624    0.8129    0.0000 Cl  0  0
    9.0479   -1.8300    0.0000 C   0  0
    7.5554   -1.9869    0.0000 C   0  0
    6.5517   -0.8722    0.0000 C   0  0
    5.2003   -1.4932    0.0000 C   0  0
    3.8990   -0.7455    0.0000 C   0  0
    3.8964    0.7545    0.0000 O   0  0
    2.6003   -1.4977    0.0000 N   0  0
    1.2990   -0.7500    0.0000 C   0  0  2  0  0  0
    1.2990    0.7500    0.0000 C   0  0
    0.0000    1.5000    0.0000 N   0  0
   -1.2990    0.7500    0.0000 C   0  0  2  0  0  0
   -2.5973    1.5031    0.0000 C   0  0
   -2.5951    3.0039    0.0000 C   0  0
   -3.8933    3.7570    0.0000 N   0  0
   -3.8934    5.2570    0.0000 C   0  0
   -5.1924    6.0070    0.0000 C   0  0
   -6.4915    5.2571    0.0000 O   0  0
   -6.4915    3.7571    0.0000 C   0  0
   -5.1925    3.0070    0.0000 C   0  0
   -1.2990   -0.7500    0.0000 C   0  0
    0.0000   -1.5000    0.0000 C   0  0  1  0  0  0
    0.0000   -3.0008    0.0000 C   0  0
    1.2979   -3.7529    0.0000 C   0  0
    1.2955   -5.2529    0.0000 C   0  0
   -0.0047   -6.0009    0.0000 C   0  0
   -0.0071   -7.5009    0.0000 Cl  0  0
   -1.3026   -5.2488    0.0000 C   0  0
   -2.6028   -5.9967    0.0000 Cl  0  0
   -1.3002   -3.7488    0.0000 C   0  0
    5.3382   -2.9741    0.0000 O   0  0
    6.8054   -3.2859    0.0000 C   0  0
    7.4155   -4.6562    0.0000 Cl  0  0
  1  2  1  0
  2  3  1  0
  3  4  2  0
  4  5  1  0
  5  6  1  0
  5  7  2  0
  7  2  1  4
  7  8  1  0
  8  9  1  0
  9 10  2  0
 10 11  1  0
 11 12  2  0
 11 13  1  0
 14 13  1  1
 14 15  1  0
 15 16  1  0
 16 17  1  0
 17 18  1  1
 18 19  1  0
 19 20  1  0
 20 21  1  0
 21 22  1  0
 22 23  1  0
 23 24  1  0
 24 25  1  0
 25 20  1  0
 17 26  1  0
 26 27  1  0
 27 14  1  0
 27 28  1  6
 28 29  2  0
 29 30  1  0
 30 31  2  0
 31 32  1  0
 31 33  1  0
 33 34  1  0
 33 35  2  0
 35 28  1  0
 10 36  1  0
 36 37  1  0
 37  8  2  0
 37 38  1  0
M  END
> <assay_chembl_id>
CHEMBL4407363

> <assay_description>
Antiproliferative activity against human LNCAP cells

> <document_journal>
J Med Chem

> <molecule_chembl_id>
CHEMBL4450403

> <standard_value>
410

> <IC50_uM>
0.41

> <Activity>
Yes

> <Canonical_Smiles>
Cn1ncc(Cl)c1-c1cc(C(=O)N[C@@H]2CN[C@H](CCN3CCOCC3)C[C@H]2c2ccc(Cl)c(Cl)c2)oc1Cl

$$$$

  SciTegic03142313312D

 34 37  0  0  1  0            999 V2000
    3.8912   -5.2570    0.0000 C   0  0
    3.8933   -3.7570    0.0000 O   0  0
    2.5951   -3.0039    0.0000 C   0  0
    2.5973   -1.5031    0.0000 C   0  0
    1.2990   -0.7500    0.0000 C   0  0  2  0  0  0
    1.2990    0.7500    0.0000 C   0  0
    0.0000    1.5000    0.0000 C   0  0  1  0  0  0
    0.0000    3.0008    0.0000 C   0  0
   -1.2979    3.7529    0.0000 C   0  0
   -1.2955    5.2529    0.0000 C   0  0
    0.0047    6.0009    0.0000 C   0  0
    0.0071    7.5009    0.0000 Cl  0  0
    1.3026    5.2488    0.0000 C   0  0
    2.6028    5.9968    0.0000 Cl  0  0
    1.3002    3.7488    0.0000 C   0  0
   -1.2990    0.7500    0.0000 C   0  0  2  0  0  0
   -2.5973    1.5031    0.0000 N   0  0
   -3.8990    0.7562    0.0000 C   0  0
   -3.9026   -0.7438    0.0000 O   0  0
   -5.1972    1.5092    0.0000 C   0  0
   -6.5512    0.8938    0.0000 C   0  0
   -7.5503    2.0126    0.0000 C   0  0
   -9.0434    1.8619    0.0000 C   0  0
   -9.8727    0.6330    0.0000 C   0  0
   -9.3687   -0.7798    0.0000 Cl  0  0
  -11.3093    1.0646    0.0000 C   0  0
  -11.3427    2.5642    0.0000 N   0  0
   -9.9269    3.0595    0.0000 N   0  0
   -9.4845    4.4927    0.0000 C   0  0
   -6.7949    3.3085    0.0000 C   0  0
   -7.3994    4.6814    0.0000 Cl  0  0
   -5.3290    2.9907    0.0000 O   0  0
   -1.2990   -0.7500    0.0000 C   0  0
    0.0000   -1.5000    0.0000 N   0  0
  1  2  1  0
  2  3  1  0
  3  4  1  0
  5  4  1  1
  5  6  1  0
  6  7  1  0
  7  8  1  6
  8  9  2  0
  9 10  1  0
 10 11  2  0
 11 12  1  0
 11 13  1  0
 13 14  1  0
 13 15  2  0
 15  8  1  0
  7 16  1  0
 16 17  1  1
 17 18  1  0
 18 19  2  0
 18 20  1  0
 20 21  2  0
 22 21  1  4
 22 23  1  0
 23 24  2  0
 24 25  1  0
 24 26  1  0
 26 27  2  0
 27 28  1  0
 28 23  1  0
 28 29  1  0
 22 30  2  0
 30 31  1  0
 30 32  1  0
 32 20  1  0
 16 33  1  0
 33 34  1  0
 34  5  1  0
M  END
> <assay_chembl_id>
CHEMBL4407363

> <assay_description>
Antiproliferative activity against human LNCAP cells

> <document_journal>
J Med Chem

> <molecule_chembl_id>
CHEMBL4568343

> <standard_value>
250

> <IC50_uM>
0.25

> <Activity>
Yes

> <Canonical_Smiles>
COCC[C@@H]1C[C@@H](c2ccc(Cl)c(Cl)c2)[C@H](NC(=O)c2cc(-c3c(Cl)cnn3C)c(Cl)o2)CN1

$$$$

  SciTegic03142313312D

 35 38  0  0  1  0            999 V2000
    9.4998   -4.4591    0.0000 C   0  0
    9.9363   -3.0240    0.0000 N   0  0
   11.3501   -2.5229    0.0000 N   0  0
   11.3105   -1.0234    0.0000 C   0  0
    9.8721   -0.5978    0.0000 C   0  0
    9.3624    0.8129    0.0000 Cl  0  0
    9.0479   -1.8300    0.0000 C   0  0
    7.5554   -1.9869    0.0000 C   0  0
    6.5517   -0.8722    0.0000 C   0  0
    5.2003   -1.4932    0.0000 C   0  0
    3.8990   -0.7455    0.0000 C   0  0
    3.8964    0.7545    0.0000 O   0  0
    2.6003   -1.4977    0.0000 N   0  0
    1.2990   -0.7500    0.0000 C   0  0  2  0  0  0
    1.2990    0.7500    0.0000 C   0  0
    0.0000    1.5000    0.0000 N   0  0
   -1.2990    0.7500    0.0000 C   0  0  2  0  0  0
   -2.5973    1.5031    0.0000 C   0  0
   -2.5951    3.0039    0.0000 C   0  0  3  0  0  0
   -1.2948    3.7516    0.0000 O   0  0
   -3.8933    3.7570    0.0000 C   0  0
   -3.8912    5.2570    0.0000 O   0  0
   -1.2990   -0.7500    0.0000 C   0  0
    0.0000   -1.5000    0.0000 C   0  0  1  0  0  0
    0.0000   -3.0008    0.0000 C   0  0
    1.2979   -3.7529    0.0000 C   0  0
    1.2955   -5.2529    0.0000 C   0  0
   -0.0047   -6.0009    0.0000 C   0  0
   -0.0071   -7.5009    0.0000 Cl  0  0
   -1.3026   -5.2488    0.0000 C   0  0
   -2.6028   -5.9967    0.0000 Cl  0  0
   -1.3002   -3.7488    0.0000 C   0  0
    5.3382   -2.9741    0.0000 O   0  0
    6.8054   -3.2859    0.0000 C   0  0
    7.4155   -4.6562    0.0000 Cl  0  0
  1  2  1  0
  2  3  1  0
  3  4  2  0
  4  5  1  0
  5  6  1  0
  5  7  2  0
  7  2  1  4
  7  8  1  0
  8  9  1  0
  9 10  2  0
 10 11  1  0
 11 12  2  0
 11 13  1  0
 14 13  1  1
 14 15  1  0
 15 16  1  0
 16 17  1  0
 17 18  1  1
 18 19  1  0
 19 20  1  4
 19 21  1  0
 21 22  1  0
 17 23  1  0
 23 24  1  0
 24 14  1  0
 24 25  1  6
 25 26  2  0
 26 27  1  0
 27 28  2  0
 28 29  1  0
 28 30  1  0
 30 31  1  0
 30 32  2  0
 32 25  1  0
 10 33  1  0
 33 34  1  0
 34  8  2  0
 34 35  1  0
M  END
> <assay_chembl_id>
CHEMBL4407363

> <assay_description>
Antiproliferative activity against human LNCAP cells

> <document_journal>
J Med Chem

> <molecule_chembl_id>
CHEMBL4470606

> <standard_value>
70

> <IC50_uM>
0.07

> <Activity>
Yes

> <Canonical_Smiles>
Cn1ncc(Cl)c1-c1cc(C(=O)N[C@@H]2CN[C@H](CC(O)CO)C[C@H]2c2ccc(Cl)c(Cl)c2)oc1Cl

$$$$

  SciTegic03142313312D

 33 36  0  0  1  0            999 V2000
    9.4998   -4.4591    0.0000 C   0  0
    9.9363   -3.0240    0.0000 N   0  0
   11.3501   -2.5229    0.0000 N   0  0
   11.3105   -1.0234    0.0000 C   0  0
    9.8721   -0.5978    0.0000 C   0  0
    9.3624    0.8129    0.0000 Cl  0  0
    9.0479   -1.8300    0.0000 C   0  0
    7.5554   -1.9869    0.0000 C   0  0
    6.5517   -0.8722    0.0000 C   0  0
    5.2003   -1.4932    0.0000 C   0  0
    3.8990   -0.7455    0.0000 C   0  0
    3.8964    0.7545    0.0000 O   0  0
    2.6003   -1.4977    0.0000 N   0  0
    1.2990   -0.7500    0.0000 C   0  0  2  0  0  0
    1.2990    0.7500    0.0000 C   0  0
    0.0000    1.5000    0.0000 N   0  0
   -1.2990    0.7500    0.0000 C   0  0  2  0  0  0
   -2.5973    1.5031    0.0000 C   0  0
   -2.5951    3.0039    0.0000 C   0  0
   -3.8926    3.7566    0.0000 O   0  0
   -1.2990   -0.7500    0.0000 C   0  0
    0.0000   -1.5000    0.0000 C   0  0  1  0  0  0
    0.0000   -3.0008    0.0000 C   0  0
    1.2979   -3.7529    0.0000 C   0  0
    1.2955   -5.2529    0.0000 C   0  0
   -0.0047   -6.0009    0.0000 C   0  0
   -0.0071   -7.5009    0.0000 Cl  0  0
   -1.3026   -5.2488    0.0000 C   0  0
   -2.6028   -5.9967    0.0000 Cl  0  0
   -1.3002   -3.7488    0.0000 C   0  0
    5.3382   -2.9741    0.0000 O   0  0
    6.8054   -3.2859    0.0000 C   0  0
    7.4155   -4.6562    0.0000 Cl  0  0
  1  2  1  0
  2  3  1  0
  3  4  2  0
  4  5  1  0
  5  6  1  0
  5  7  2  0
  7  2  1  4
  7  8  1  0
  8  9  1  0
  9 10  2  0
 10 11  1  0
 11 12  2  0
 11 13  1  0
 14 13  1  1
 14 15  1  0
 15 16  1  0
 16 17  1  0
 17 18  1  1
 18 19  1  0
 19 20  1  0
 17 21  1  0
 21 22  1  0
 22 14  1  0
 22 23  1  6
 23 24  2  0
 24 25  1  0
 25 26  2  0
 26 27  1  0
 26 28  1  0
 28 29  1  0
 28 30  2  0
 30 23  1  0
 10 31  1  0
 31 32  1  0
 32  8  2  0
 32 33  1  0
M  END
> <assay_chembl_id>
CHEMBL4407363

> <assay_description>
Antiproliferative activity against human LNCAP cells

> <document_journal>
J Med Chem

> <molecule_chembl_id>
CHEMBL4517950

> <standard_value>
160

> <IC50_uM>
0.16

> <Activity>
Yes

> <Canonical_Smiles>
Cn1ncc(Cl)c1-c1cc(C(=O)N[C@@H]2CN[C@H](CCO)C[C@H]2c2ccc(Cl)c(Cl)c2)oc1Cl

$$$$

  SciTegic03142313312D

 34 37  0  0  1  0            999 V2000
    9.4998   -4.4591    0.0000 C   0  0
    9.9363   -3.0240    0.0000 N   0  0
   11.3501   -2.5229    0.0000 N   0  0
   11.3105   -1.0234    0.0000 C   0  0
    9.8721   -0.5978    0.0000 C   0  0
    9.3624    0.8129    0.0000 Cl  0  0
    9.0479   -1.8300    0.0000 C   0  0
    7.5554   -1.9869    0.0000 C   0  0
    6.5517   -0.8722    0.0000 C   0  0
    5.2003   -1.4932    0.0000 C   0  0
    3.8990   -0.7455    0.0000 C   0  0
    3.8964    0.7545    0.0000 O   0  0
    2.6003   -1.4977    0.0000 N   0  0
    1.2990   -0.7500    0.0000 C   0  0  2  0  0  0
    1.2990    0.7500    0.0000 C   0  0
    0.0000    1.5000    0.0000 N   0  0
   -1.2990    0.7500    0.0000 C   0  0  2  0  0  0
   -2.5973    1.5031    0.0000 C   0  0
   -2.5951    3.0039    0.0000 C   0  0
   -3.8933    3.7570    0.0000 C   0  0
   -3.8912    5.2570    0.0000 O   0  0
   -1.2990   -0.7500    0.0000 C   0  0
    0.0000   -1.5000    0.0000 C   0  0  1  0  0  0
    0.0000   -3.0008    0.0000 C   0  0
    1.2979   -3.7529    0.0000 C   0  0
    1.2955   -5.2529    0.0000 C   0  0
   -0.0047   -6.0009    0.0000 C   0  0
   -0.0071   -7.5009    0.0000 Cl  0  0
   -1.3026   -5.2488    0.0000 C   0  0
   -2.6028   -5.9967    0.0000 Cl  0  0
   -1.3002   -3.7488    0.0000 C   0  0
    5.3382   -2.9741    0.0000 O   0  0
    6.8054   -3.2859    0.0000 C   0  0
    7.4155   -4.6562    0.0000 Cl  0  0
  1  2  1  0
  2  3  1  0
  3  4  2  0
  4  5  1  0
  5  6  1  0
  5  7  2  0
  7  2  1  4
  7  8  1  0
  8  9  1  0
  9 10  2  0
 10 11  1  0
 11 12  2  0
 11 13  1  0
 14 13  1  1
 14 15  1  0
 15 16  1  0
 16 17  1  0
 17 18  1  1
 18 19  1  0
 19 20  1  0
 20 21  1  0
 17 22  1  0
 22 23  1  0
 23 14  1  0
 23 24  1  6
 24 25  2  0
 25 26  1  0
 26 27  2  0
 27 28  1  0
 27 29  1  0
 29 30  1  0
 29 31  2  0
 31 24  1  0
 10 32  1  0
 32 33  1  0
 33  8  2  0
 33 34  1  0
M  END
> <assay_chembl_id>
CHEMBL4407363

> <assay_description>
Antiproliferative activity against human LNCAP cells

> <document_journal>
J Med Chem

> <molecule_chembl_id>
CHEMBL4451765

> <standard_value>
210

> <IC50_uM>
0.21

> <Activity>
Yes

> <Canonical_Smiles>
Cn1ncc(Cl)c1-c1cc(C(=O)N[C@@H]2CN[C@H](CCCO)C[C@H]2c2ccc(Cl)c(Cl)c2)oc1Cl

$$$$

  SciTegic03142313312D

 33 36  0  0  1  0            999 V2000
    3.8926   -3.7566    0.0000 C   0  0
    2.5951   -3.0039    0.0000 C   0  0
    2.5973   -1.5031    0.0000 C   0  0
    1.2990   -0.7500    0.0000 C   0  0  2  0  0  0
    1.2990    0.7500    0.0000 C   0  0
    0.0000    1.5000    0.0000 C   0  0  1  0  0  0
    0.0000    3.0008    0.0000 C   0  0
   -1.2979    3.7529    0.0000 C   0  0
   -1.2955    5.2529    0.0000 C   0  0
    0.0047    6.0009    0.0000 C   0  0
    0.0071    7.5009    0.0000 Cl  0  0
    1.3026    5.2488    0.0000 C   0  0
    2.6028    5.9968    0.0000 Cl  0  0
    1.3002    3.7488    0.0000 C   0  0
   -1.2990    0.7500    0.0000 C   0  0  2  0  0  0
   -2.5973    1.5031    0.0000 N   0  0
   -3.8990    0.7562    0.0000 C   0  0
   -3.9026   -0.7438    0.0000 O   0  0
   -5.1972    1.5092    0.0000 C   0  0
   -6.5512    0.8938    0.0000 C   0  0
   -7.5503    2.0126    0.0000 C   0  0
   -9.0434    1.8619    0.0000 C   0  0
   -9.8727    0.6330    0.0000 C   0  0
   -9.3687   -0.7798    0.0000 Cl  0  0
  -11.3093    1.0646    0.0000 C   0  0
  -11.3427    2.5642    0.0000 N   0  0
   -9.9269    3.0595    0.0000 N   0  0
   -9.4845    4.4927    0.0000 C   0  0
   -6.7949    3.3085    0.0000 C   0  0
   -7.3994    4.6814    0.0000 Cl  0  0
   -5.3290    2.9907    0.0000 O   0  0
   -1.2990   -0.7500    0.0000 C   0  0
    0.0000   -1.5000    0.0000 N   0  0
  1  2  2  0
  2  3  1  0
  4  3  1  1
  4  5  1  0
  5  6  1  0
  6  7  1  6
  7  8  2  0
  8  9  1  0
  9 10  2  0
 10 11  1  0
 10 12  1  0
 12 13  1  0
 12 14  2  0
 14  7  1  0
  6 15  1  0
 15 16  1  1
 16 17  1  0
 17 18  2  0
 17 19  1  0
 19 20  2  0
 21 20  1  4
 21 22  1  0
 22 23  2  0
 23 24  1  0
 23 25  1  0
 25 26  2  0
 26 27  1  0
 27 22  1  0
 27 28  1  0
 21 29  2  0
 29 30  1  0
 29 31  1  0
 31 19  1  0
 15 32  1  0
 32 33  1  0
 33  4  1  0
M  END
> <assay_chembl_id>
CHEMBL4407363

> <assay_description>
Antiproliferative activity against human LNCAP cells

> <document_journal>
J Med Chem

> <molecule_chembl_id>
CHEMBL4449509

> <standard_value>
160

> <IC50_uM>
0.16

> <Activity>
Yes

> <Canonical_Smiles>
C=CC[C@@H]1C[C@@H](c2ccc(Cl)c(Cl)c2)[C@H](NC(=O)c2cc(-c3c(Cl)cnn3C)c(Cl)o2)CN1

$$$$

  SciTegic03142313312D

 28 30  0  0  1  0            999 V2000
    9.9076   -8.2514    0.0000 C   0  0
    8.8831   -9.3470    0.0000 N   0  0
    9.1561  -10.8219    0.0000 N   0  0
    7.8377  -11.5373    0.0000 C   0  0
    6.7499  -10.5045    0.0000 C   0  0
    5.2733  -10.7684    0.0000 Cl  0  0
    7.4049   -9.1746    0.0000 C   0  0
    6.7945   -7.8036    0.0000 C   0  0
    5.3273   -7.4917    0.0000 C   0  0
    5.1894   -6.0109    0.0000 C   0  0
    3.8912   -5.2578    0.0000 C   0  0
    2.5909   -6.0056    0.0000 O   0  0
    3.8933   -3.7570    0.0000 N   0  0
    2.5951   -3.0039    0.0000 C   0  0  2  0  0  0
    1.2925   -3.7494    0.0000 C   0  0
   -0.0041   -2.9953    0.0000 N   0  0
    2.5973   -1.5031    0.0000 C   0  0
    1.2990   -0.7500    0.0000 C   0  0
    1.2990    0.7500    0.0000 C   0  0
    0.0000    1.5000    0.0000 C   0  0
   -1.2990    0.7500    0.0000 C   0  0
   -2.5981    1.5000    0.0000 F   0  0
   -1.2990   -0.7500    0.0000 C   0  0
   -2.5981   -1.5000    0.0000 F   0  0
    0.0000   -1.5000    0.0000 C   0  0
    6.5408   -5.3899    0.0000 O   0  0
    7.5445   -6.5046    0.0000 C   0  0
    9.0363   -6.3478    0.0000 Cl  0  0
  1  2  1  0
  2  3  1  0
  3  4  2  0
  4  5  1  0
  5  6  1  0
  5  7  2  0
  7  2  1  4
  7  8  1  0
  8  9  1  0
  9 10  2  0
 10 11  1  0
 11 12  2  0
 11 13  1  0
 14 13  1  6
 14 15  1  0
 15 16  1  0
 14 17  1  0
 17 18  1  0
 18 19  2  0
 19 20  1  0
 20 21  2  0
 21 22  1  0
 21 23  1  0
 23 24  1  0
 23 25  2  0
 25 18  1  0
 10 26  1  0
 26 27  1  0
 27  8  2  0
 27 28  1  0
M  END
> <assay_chembl_id>
CHEMBL4407363

> <assay_description>
Antiproliferative activity against human LNCAP cells

> <document_journal>
J Med Chem

> <molecule_chembl_id>
CHEMBL3137336

> <standard_value>
70

> <IC50_uM>
0.07

> <Activity>
Yes

> <Canonical_Smiles>
Cn1ncc(Cl)c1-c1cc(C(=O)N[C@H](CN)Cc2ccc(F)c(F)c2)oc1Cl

$$$$

  SciTegic03142313312D

 22 25  0  0  0  0            999 V2000
    2.5981   -1.5000    0.0000 O   0  0
    1.2990   -0.7500    0.0000 C   0  0
    1.2990    0.7500    0.0000 C   0  0
    2.5981    1.5000    0.0000 C   0  0
    2.5981    3.0000    0.0000 C   0  0
    1.2990    3.7500    0.0000 C   0  0
    0.0000    3.0000    0.0000 C   0  0
    0.0000    1.5000    0.0000 C   0  0
   -1.2990    0.7500    0.0000 C   0  0
   -2.5981    1.5000    0.0000 O   0  0
   -1.2990   -0.7500    0.0000 C   0  0
   -2.4133   -1.7530    0.0000 O   0  0
   -1.8032   -3.1233    0.0000 C   0  0
   -2.5536   -4.4230    0.0000 C   0  0
   -4.0444   -4.5346    0.0000 C   0  0
   -4.6946   -5.8864    0.0000 C   0  0
   -3.8489   -7.1253    0.0000 C   0  0
   -2.3532   -7.0124    0.0000 C   0  0
   -1.5076   -8.2514    0.0000 Cl  0  0
   -1.7031   -5.6606    0.0000 C   0  0
   -0.3114   -2.9665    0.0000 N   0  0
    0.0000   -1.5000    0.0000 C   0  0
  1  2  2  0
  2  3  1  0
  3  4  2  0
  4  5  1  0
  5  6  2  0
  6  7  1  0
  7  8  2  0
  8  3  1  0
  8  9  1  0
  9 10  2  0
  9 11  1  0
 11 12  1  0
 12 13  1  0
 13 14  1  0
 14 15  2  0
 15 16  1  0
 16 17  2  0
 17 18  1  0
 18 19  1  0
 18 20  2  0
 20 14  1  0
 13 21  2  0
 21 22  1  0
 22 11  2  0
 22  2  1  0
M  END
> <assay_chembl_id>
CHEMBL4407612

> <assay_description>
Anticancer activity against human LNCAP cells after 72 to 102 hrs by MTT assay

> <document_journal>
Eur J Med Chem

> <molecule_chembl_id>
CHEMBL4537288

> <standard_value>
30

> <IC50_uM>
0.03

> <Activity>
Yes

> <Canonical_Smiles>
O=C1c2ccccc2C(=O)c2oc(-c3cccc(Cl)c3)nc21

$$$$

  SciTegic03142313312D

 40 45  0  0  0  0            999 V2000
    5.1887   -6.0105    0.0000 C   0  0
    3.8912   -5.2578    0.0000 N   0  0
    2.5909   -6.0056    0.0000 C   0  0
    3.8933   -3.7570    0.0000 C   0  0
    2.5951   -3.0039    0.0000 C   0  0
    2.5973   -1.5031    0.0000 C   0  0
    1.2990   -0.7500    0.0000 N   0  0
    1.2990    0.7500    0.0000 C   0  0
    2.5981    1.5000    0.0000 O   0  0
    0.0000    1.5000    0.0000 C   0  0
    0.0000    3.0000    0.0000 C   0  0
   -1.2991    3.7500    0.0000 C   0  0
   -2.5981    3.0000    0.0000 C   0  0
   -3.8971    3.7500    0.0000 C   0  0
   -3.8972    5.2500    0.0000 O   0  0
   -5.1962    3.0000    0.0000 N   0  0
   -6.4975    3.7477    0.0000 C   0  0
   -7.7962    2.9954    0.0000 C   0  0
   -9.0975    3.7432    0.0000 C   0  0
  -10.3961    2.9909    0.0000 N   0  0
  -11.6967    3.7382    0.0000 C   0  0
  -10.3935    1.4909    0.0000 C   0  0
   -5.1962    1.5000    0.0000 C   0  0
   -6.4952    0.7500    0.0000 O   0  0
   -3.8971    0.7500    0.0000 C   0  0
   -3.8971   -0.7500    0.0000 C   0  0
   -5.1961   -1.5000    0.0000 N   0  0
   -5.1961   -3.0000    0.0000 C   0  0
   -6.4952   -3.7501    0.0000 C   0  0
   -6.4951   -5.2501    0.0000 C   0  0
   -5.1961   -6.0000    0.0000 C   0  0
   -3.8971   -5.2500    0.0000 C   0  0
   -3.8971   -3.7500    0.0000 C   0  0
   -2.5981   -3.0000    0.0000 N   0  0
   -2.5981   -1.5000    0.0000 C   0  0
   -1.2990   -0.7500    0.0000 C   0  0
    0.0000   -1.5000    0.0000 C   0  0
    0.0000   -3.0000    0.0000 O   0  0
   -1.2990    0.7500    0.0000 C   0  0
   -2.5981    1.5000    0.0000 C   0  0
  1  2  1  0
  2  3  1  0
  2  4  1  0
  4  5  1  0
  5  6  1  0
  6  7  1  0
  7  8  1  0
  8  9  2  0
  8 10  1  0
 10 11  2  0
 11 12  1  0
 12 13  2  0
 13 14  1  0
 14 15  2  0
 14 16  1  0
 16 17  1  0
 17 18  1  0
 18 19  1  0
 19 20  1  0
 20 21  1  0
 20 22  1  0
 16 23  1  0
 23 24  2  0
 23 25  1  0
 25 26  2  0
 26 27  1  0
 27 28  1  0
 28 29  2  0
 29 30  1  0
 30 31  2  0
 31 32  1  0
 32 33  2  0
 33 28  1  0
 33 34  1  0
 34 35  1  0
 35 26  1  0
 35 36  2  0
 36 37  1  0
 37  7  1  0
 37 38  2  0
 36 39  1  0
 39 10  1  0
 39 40  2  0
 40 13  1  0
 40 25  1  0
M  END
> <assay_chembl_id>
CHEMBL4411621

> <assay_description>
Cytotoxicity against human LNCAP cells expressing androgen receptor T877A point mutant assessed as reduction in cell viability after 48 hrs by MTS assay

> <document_journal>
J Med Chem

> <molecule_chembl_id>
CHEMBL4468209

> <standard_value>
140

> <IC50_uM>
0.14

> <Activity>
Yes

> <RemovedSalts>
HCl
HCl

> <Canonical_Smiles>
CN(C)CCCn1c(=O)c2ccc3c(=O)n(CCCN(C)C)c(=O)c4c5[nH]c6ccccc6[nH]c5c(c1=O)c2c34.Cl.Cl

$$$$

  SciTegic03142313312D

 43 47  0  0  0  0            999 V2000
    3.8912   -5.2570    0.0000 C   0  0
    3.8933   -3.7570    0.0000 N   0  0
    5.1937   -3.0093    0.0000 C   0  0
    2.5951   -3.0039    0.0000 C   0  0
    2.5973   -1.5031    0.0000 C   0  0
    1.2990   -0.7500    0.0000 N   0  0
    1.2990    0.7500    0.0000 C   0  0
    2.5981    1.5000    0.0000 O   0  0
    0.0000    1.5000    0.0000 C   0  0
    0.0000    3.0000    0.0000 C   0  0
   -1.2991    3.7500    0.0000 C   0  0
   -2.5981    3.0000    0.0000 C   0  0
   -2.5981    1.5000    0.0000 C   0  0
   -3.8971    0.7500    0.0000 C   0  0
   -3.8971   -0.7500    0.0000 C   0  0
   -5.1969   -1.5004    0.0000 C   0  0
   -6.4966   -2.2509    0.0000 C   0  0
   -7.7964   -3.0013    0.0000 C   0  0
   -7.7963   -4.5013    0.0000 C   0  0
   -9.0954   -5.2513    0.0000 C   0  0
  -10.3944   -4.5013    0.0000 C   0  0
  -11.6926   -5.2544    0.0000 C   0  0
  -11.6905   -6.7552    0.0000 N   0  0
  -12.9880   -7.5079    0.0000 C   0  0
  -10.3901   -7.5030    0.0000 C   0  0
  -10.3944   -3.0013    0.0000 C   0  0
  -11.6935   -2.2513    0.0000 O   0  0
   -9.0954   -2.2513    0.0000 C   0  0
   -2.5981   -1.5000    0.0000 C   0  0
   -1.2990   -0.7500    0.0000 C   0  0
   -1.2990    0.7500    0.0000 C   0  0
    0.0000   -1.5000    0.0000 C   0  0
    0.0000   -3.0000    0.0000 O   0  0
   -5.1962    1.5000    0.0000 C   0  0
   -6.4952    0.7500    0.0000 O   0  0
   -5.1962    3.0000    0.0000 N   0  0
   -6.4944    3.7531    0.0000 C   0  0
   -6.4923    5.2539    0.0000 C   0  0
   -7.7905    6.0070    0.0000 N   0  0
   -7.7883    7.5070    0.0000 C   0  0
   -9.0908    5.2592    0.0000 C   0  0
   -3.8971    3.7500    0.0000 C   0  0
   -3.8971    5.2500    0.0000 O   0  0
  1  2  1  0
  2  3  1  0
  2  4  1  0
  4  5  1  0
  5  6  1  0
  6  7  1  0
  7  8  2  0
  7  9  1  0
  9 10  2  0
 10 11  1  0
 11 12  2  0
 12 13  1  0
 13 14  2  0
 14 15  1  0
 15 16  1  0
 16 17  3  0
 17 18  1  0
 18 19  2  0
 19 20  1  0
 20 21  2  0
 21 22  1  0
 22 23  1  0
 23 24  1  0
 23 25  1  0
 21 26  1  0
 26 27  1  0
 26 28  2  0
 28 18  1  0
 15 29  2  0
 29 30  1  0
 30 31  2  0
 31  9  1  0
 31 13  1  0
 30 32  1  0
 32  6  1  0
 32 33  2  0
 14 34  1  0
 34 35  2  0
 34 36  1  0
 36 37  1  0
 37 38  1  0
 38 39  1  0
 39 40  1  0
 39 41  1  0
 36 42  1  0
 42 12  1  0
 42 43  2  0
M  END
> <assay_chembl_id>
CHEMBL4411621

> <assay_description>
Cytotoxicity against human LNCAP cells expressing androgen receptor T877A point mutant assessed as reduction in cell viability after 48 hrs by MTS assay

> <document_journal>
J Med Chem

> <molecule_chembl_id>
CHEMBL4526946

> <standard_value>
590

> <IC50_uM>
0.59

> <Activity>
Yes

> <RemovedSalts>
HCl
HCl
HCl

> <Canonical_Smiles>
CN(C)CCN1C(=O)c2ccc3c4c(c(C#Cc5ccc(CN(C)C)c(O)c5)cc(c24)C1=O)C(=O)N(CCN(C)C)C3=O.Cl.Cl.Cl

$$$$

  SciTegic03142313312D

 44 48  0  0  0  0            999 V2000
    3.8912   -5.2570    0.0000 C   0  0
    3.8933   -3.7570    0.0000 N   0  0
    5.1937   -3.0093    0.0000 C   0  0
    2.5951   -3.0039    0.0000 C   0  0
    2.5973   -1.5031    0.0000 C   0  0
    1.2990   -0.7500    0.0000 N   0  0
    1.2990    0.7500    0.0000 C   0  0
    2.5981    1.5000    0.0000 O   0  0
    0.0000    1.5000    0.0000 C   0  0
    0.0000    3.0000    0.0000 C   0  0
   -1.2991    3.7500    0.0000 C   0  0
   -2.5981    3.0000    0.0000 C   0  0
   -2.5981    1.5000    0.0000 C   0  0
   -3.8971    0.7500    0.0000 C   0  0
   -3.8971   -0.7500    0.0000 C   0  0
   -5.1953   -1.5031    0.0000 N   0  0
   -5.1932   -3.0039    0.0000 C   0  0
   -6.4914   -3.7570    0.0000 C   0  0
   -6.4892   -5.2579    0.0000 C   0  0
   -7.7856   -6.0125    0.0000 C   0  0
   -7.7804   -7.5124    0.0000 C   0  0
   -6.4788   -8.2579    0.0000 C   0  0
   -6.4736   -9.7579    0.0000 O   0  0
   -5.1824   -7.5034    0.0000 C   0  0
   -3.8785   -8.2467    0.0000 C   0  0
   -2.5824   -7.4899    0.0000 N   0  0
   -1.2793   -8.2327    0.0000 C   0  0
   -2.5902   -5.9899    0.0000 C   0  0
   -5.1876   -6.0034    0.0000 C   0  0
   -2.5981   -1.5000    0.0000 C   0  0
   -1.2990   -0.7500    0.0000 C   0  0
   -1.2990    0.7500    0.0000 C   0  0
    0.0000   -1.5000    0.0000 C   0  0
    0.0000   -3.0000    0.0000 O   0  0
   -5.1962    1.5000    0.0000 C   0  0
   -6.4952    0.7500    0.0000 O   0  0
   -5.1962    3.0000    0.0000 N   0  0
   -6.4944    3.7531    0.0000 C   0  0
   -6.4923    5.2539    0.0000 C   0  0
   -7.7905    6.0070    0.0000 N   0  0
   -7.7883    7.5070    0.0000 C   0  0
   -9.0908    5.2592    0.0000 C   0  0
   -3.8971    3.7500    0.0000 C   0  0
   -3.8971    5.2500    0.0000 O   0  0
  1  2  1  0
  2  3  1  0
  2  4  1  0
  4  5  1  0
  5  6  1  0
  6  7  1  0
  7  8  2  0
  7  9  1  0
  9 10  2  0
 10 11  1  0
 11 12  2  0
 12 13  1  0
 13 14  2  0
 14 15  1  0
 15 16  1  0
 16 17  1  0
 17 18  1  0
 18 19  1  0
 19 20  2  0
 20 21  1  0
 21 22  2  0
 22 23  1  0
 22 24  1  0
 24 25  1  0
 25 26  1  0
 26 27  1  0
 26 28  1  0
 24 29  2  0
 29 19  1  0
 15 30  2  0
 30 31  1  0
 31 32  2  0
 32  9  1  0
 32 13  1  0
 31 33  1  0
 33  6  1  0
 33 34  2  0
 14 35  1  0
 35 36  2  0
 35 37  1  0
 37 38  1  0
 38 39  1  0
 39 40  1  0
 40 41  1  0
 40 42  1  0
 37 43  1  0
 43 12  1  0
 43 44  2  0
M  END
> <assay_chembl_id>
CHEMBL4411621

> <assay_description>
Cytotoxicity against human LNCAP cells expressing androgen receptor T877A point mutant assessed as reduction in cell viability after 48 hrs by MTS assay

> <document_journal>
J Med Chem

> <molecule_chembl_id>
CHEMBL4565909

> <standard_value>
390

> <IC50_uM>
0.39

> <Activity>
Yes

> <RemovedSalts>
HCl
HCl
HCl

> <Canonical_Smiles>
CN(C)CCN1C(=O)c2ccc3c4c(c(NCCc5ccc(O)c(CN(C)C)c5)cc(c24)C1=O)C(=O)N(CCN(C)C)C3=O.Cl.Cl.Cl

$$$$

  SciTegic03142313312D

121124  0  0  1  0            999 V2000
   26.6375    2.5737    0.0000 C   0  0
   26.3345    4.0428    0.0000 C   0  0
   24.9103    4.5161    0.0000 C   0  0
   24.6071    5.9860    0.0000 C   0  0
   25.7282    6.9826    0.0000 O   0  0
   23.1829    6.4593    0.0000 O   0  0
   22.8797    7.9292    0.0000 C   0  0
   21.4554    8.4024    0.0000 N   0  0
   21.1506    9.8720    0.0000 C   0  0
   19.7262   10.3421    0.0000 O   0  0
   22.2703   10.8714    0.0000 C   0  0  1  0  0  0
   21.9655   12.3410    0.0000 N   0  0
   23.0851   13.3404    0.0000 C   0  0
   24.5095   12.8703    0.0000 O   0  0
   22.7803   14.8100    0.0000 C   0  0  1  0  0  0
   21.3550   15.2776    0.0000 C   0  0
   21.0474   16.7457    0.0000 C   0  0
   22.1650   17.7462    0.0000 C   0  0
   23.5902   17.2786    0.0000 C   0  0
   23.8979   15.8105    0.0000 N   0  0
   25.3231   15.3429    0.0000 C   0  0
   23.6965   10.4040    0.0000 C   0  0  1  0  0  0
   24.0041    8.9359    0.0000 C   0  0
   24.8150   11.4047    0.0000 C   0  0
   26.2404   10.9375    0.0000 C   0  0
   20.3358    7.4030    0.0000 C   0  0  2  0  0  0
   20.6406    5.9335    0.0000 C   0  0
   19.5210    4.9340    0.0000 C   0  0  1  0  0  0
   18.0967    5.4073    0.0000 O   0  0
   16.9741    4.4112    0.0000 C   0  0
   17.2757    2.9419    0.0000 C   0  0
   15.5506    4.8843    0.0000 O   0  0
   19.8258    3.4645    0.0000 C   0  0
   18.8144    2.3740    0.0000 N   0  0
   19.5606    1.0728    0.0000 C   0  0
   18.9502   -0.2954    0.0000 C   0  0
   17.4582   -0.4505    0.0000 O   0  0
   19.8306   -1.5109    0.0000 N   0  0
   19.2190   -2.8814    0.0000 C   0  0  1  0  0  0
   17.7266   -3.0397    0.0000 C   0  0
   17.1166   -4.4110    0.0000 C   0  0
   15.6251   -4.5714    0.0000 C   0  0
   15.0182   -5.9431    0.0000 C   0  0
   15.9027   -7.1546    0.0000 C   0  0
   15.2958   -8.5263    0.0000 O   0  0
   17.3942   -6.9943    0.0000 C   0  0
   18.0011   -5.6225    0.0000 C   0  0
   20.0995   -4.0969    0.0000 C   0  0
   21.5924   -3.9431    0.0000 C   0  0  2  0  0  0
   22.2049   -2.5739    0.0000 C   0  0
   22.4728   -5.1586    0.0000 C   0  0
   21.8603   -6.5278    0.0000 O   0  0
   23.9657   -5.0048    0.0000 N   0  0
   24.8461   -6.2202    0.0000 N   0  0
   26.3391   -6.0664    0.0000 C   0  0
   26.9516   -4.6972    0.0000 O   0  0
   27.2195   -7.2819    0.0000 O   0  0
   28.7124   -7.1281    0.0000 C   0  0
   29.5928   -8.3436    0.0000 C   0  0
   31.0858   -8.1898    0.0000 S   0  0
   31.9662   -9.4052    0.0000 S   0  0
   33.4591   -9.2514    0.0000 C   0  0
   34.3395  -10.4669    0.0000 C   0  0  2  0  0  0
   35.8324  -10.3131    0.0000 N   0  0
   36.7129  -11.5286    0.0000 C   0  0
   36.1004  -12.8978    0.0000 O   0  0
   38.2058  -11.3748    0.0000 C   0  0  2  0  0  0
   39.0862  -12.5902    0.0000 C   0  0
   40.5791  -12.4364    0.0000 C   0  0
   41.4609  -13.6500    0.0000 C   0  0
   42.9526  -13.4932    0.0000 C   0  0
   43.5628  -12.1229    0.0000 C   0  0
   42.6812  -10.9094    0.0000 C   0  0
   41.1894  -11.0661    0.0000 C   0  0
   38.8158  -10.0035    0.0000 N   0  0
   37.9341   -8.7890    0.0000 C   0  0
   36.4423   -8.9458    0.0000 O   0  0
   38.5441   -7.4178    0.0000 C   0  0  2  0  0  0
   40.0364   -7.2578    0.0000 C   0  0
   40.9218   -8.4697    0.0000 C   0  0
   42.4132   -8.3098    0.0000 O   0  0
   40.3149   -9.8414    0.0000 O   0  0
   37.6623   -6.2033    0.0000 N   0  0
   38.2723   -4.8320    0.0000 C   0  0
   39.7641   -4.6753    0.0000 O   0  0
   37.3906   -3.6175    0.0000 C   0  0
   38.0006   -2.2463    0.0000 C   0  0
   37.1188   -1.0318    0.0000 C   0  0  2  0  0  0
   37.7288    0.3394    0.0000 N   0  0
   36.8471    1.5539    0.0000 C   0  0
   35.3553    1.3972    0.0000 O   0  0
   37.4571    2.9252    0.0000 C   0  0
   36.5753    4.1397    0.0000 C   0  0
   37.1854    5.5109    0.0000 C   0  0  1  0  0  0
   36.3036    6.7254    0.0000 N   0  0
   36.9136    8.0967    0.0000 C   0  0
   38.4054    8.2534    0.0000 O   0  0
   36.0318    9.3112    0.0000 N   0  0
   36.6419   10.6824    0.0000 C   0  0  1  0  0  0
   35.7601   11.8969    0.0000 C   0  0
   36.3701   13.2681    0.0000 C   0  0
   35.4884   14.4826    0.0000 C   0  0
   36.0980   15.8531    0.0000 O   0  0
   33.9966   14.3259    0.0000 O   0  0
   38.1342   10.8423    0.0000 C   0  0
   38.7423   12.2135    0.0000 O   0  0
   39.0179    9.6303    0.0000 O   0  0
   38.6776    5.6709    0.0000 C   0  0
   39.2858    7.0420    0.0000 O   0  0
   39.5614    4.4589    0.0000 O   0  0
   35.6259   -1.1856    0.0000 C   0  0
   34.7460    0.0292    0.0000 O   0  0
   35.0134   -2.5549    0.0000 O   0  0
   33.7295  -11.8382    0.0000 C   0  0
   34.6108  -13.0520    0.0000 O   0  0
   32.2377  -11.9949    0.0000 O   0  0
   21.0288    1.3805    0.0000 C   0  0
   21.1898    2.8718    0.0000 S   0  0
   18.9096    7.8704    0.0000 C   0  0
   17.7917    6.8703    0.0000 C   0  0
   18.6020    9.3385    0.0000 C   0  0
  1  2  1  0
  2  3  1  0
  3  4  1  0
  4  5  2  0
  4  6  1  0
  6  7  1  0
  7  8  1  0
  8  9  1  0
  9 10  2  0
  9 11  1  0
 11 12  1  1
 12 13  1  0
 13 14  2  0
 15 13  1  1
 15 16  1  0
 16 17  1  0
 17 18  1  0
 18 19  1  0
 19 20  1  0
 20 15  1  0
 20 21  1  0
 11 22  1  0
 22 23  1  6
 22 24  1  0
 24 25  1  0
  8 26  1  0
 26 27  1  6
 28 27  1  6
 28 29  1  0
 29 30  1  0
 30 31  1  0
 30 32  2  0
 28 33  1  0
 33 34  2  0
 34 35  1  0
 35 36  1  0
 36 37  2  0
 36 38  1  0
 39 38  1  6
 39 40  1  0
 40 41  1  0
 41 42  2  0
 42 43  1  0
 43 44  2  0
 44 45  1  0
 44 46  1  0
 46 47  2  0
 47 41  1  0
 39 48  1  0
 48 49  1  0
 49 50  1  6
 49 51  1  0
 51 52  2  0
 51 53  1  0
 53 54  1  0
 54 55  1  0
 55 56  2  0
 55 57  1  0
 57 58  1  0
 58 59  1  0
 59 60  1  0
 60 61  1  0
 61 62  1  0
 63 62  1  6
 63 64  1  0
 64 65  1  0
 65 66  2  0
 65 67  1  0
 67 68  1  1
 68 69  1  0
 69 70  2  0
 70 71  1  0
 71 72  2  0
 72 73  1  0
 73 74  2  0
 74 69  1  0
 67 75  1  0
 75 76  1  0
 76 77  2  0
 76 78  1  0
 78 79  1  1
 79 80  1  0
 80 81  2  0
 80 82  1  0
 78 83  1  0
 83 84  1  0
 84 85  2  0
 84 86  1  0
 86 87  1  0
 88 87  1  1
 88 89  1  0
 89 90  1  0
 90 91  2  0
 90 92  1  0
 92 93  1  0
 94 93  1  1
 94 95  1  0
 95 96  1  0
 96 97  2  0
 96 98  1  0
 99 98  1  1
 99100  1  0
100101  1  0
101102  1  0
102103  2  0
102104  1  0
 99105  1  0
105106  2  0
105107  1  0
 94108  1  0
108109  2  0
108110  1  0
 88111  1  0
111112  2  0
111113  1  0
 63114  1  0
114115  2  0
114116  1  0
 35117  2  0
117118  1  0
118 33  1  0
 26119  1  0
119120  1  0
119121  1  0
M  END
> <assay_chembl_id>
CHEMBL4412801

> <assay_description>
Growth inhibition of PSMA-positive human LNCAP cells

> <document_journal>
Eur J Med Chem

> <molecule_chembl_id>
CHEMBL4542539

> <standard_value>
3

> <IC50_uM>
0.003

> <Activity>
Yes

> <Canonical_Smiles>
CCCC(=O)OCN(C(=O)[C@@H](NC(=O)[C@H]1CCCCN1C)[C@@H](C)CC)[C@H](C[C@@H](OC(C)=O)c1nc(C(=O)N[C@@H](Cc2ccc(O)cc2)C[C@H](C)C(=O)NNC(=O)OCCSSC[C@H](NC(=O)[C@H](Cc2ccccc2)NC(=O)[C@H](CC(=O)O)NC(=O)CC[C@H](NC
(=O)CC[C@@H](NC(=O)N[C@@H](CCC(=O)O)C(=O)O)C(=O)O)C(=O)O)C(=O)O)cs1)C(C)C

$$$$

  SciTegic03142313312D

 39 43  0  0  1  0            999 V2000
    5.3417    1.2261    0.0000 C   0  0
    4.0974    2.0638    0.0000 C   0  0
    4.2013    3.5602    0.0000 O   0  0
    2.7493    1.4044    0.0000 O   0  0
    2.6454   -0.0929    0.0000 C   0  0
    1.2990   -0.7500    0.0000 C   0  0  2  0  0  0
    1.2990    0.7500    0.0000 C   0  0
    0.0000    1.5000    0.0000 C   0  0
   -1.2990    0.7500    0.0000 C   0  0  1  0  0  0
   -1.2990   -0.7500    0.0000 C   0  0  1  0  0  0
   -2.5981   -1.5000    0.0000 C   0  0
   -3.8971   -0.7500    0.0000 C   0  0
   -3.8971    0.7500    0.0000 C   0  0
   -5.1962    1.5000    0.0000 C   0  0
   -5.1962    3.0000    0.0000 C   0  0
   -3.8971    3.7500    0.0000 C   0  0
   -2.5981    3.0000    0.0000 C   0  0
   -1.2991    3.7500    0.0000 O   0  0
   -2.5981    1.5000    0.0000 C   0  0  2  0  0  0
   -1.2990    2.2500    0.0000 C   0  0
    0.0000   -1.5000    0.0000 C   0  0  1  0  0  0
   -1.2146   -2.3802    0.0000 O   0  0
    0.3061   -2.9572    0.0000 C   0  0  1  0  0  0
   -0.6990   -4.0707    0.0000 O   0  0
    1.7979   -3.1140    0.0000 C   0  0
    2.4080   -1.7437    0.0000 C   0  0  2  0  0  0
    2.7008   -0.7875    0.0000 O   0  0
    3.3870   -2.8636    0.0000 C   0  0  1  0  0  0
    4.3923   -3.9769    0.0000 C   0  0
    4.8538   -2.5499    0.0000 O   0  0
    2.9255   -4.2918    0.0000 C   0  0  1  0  0  0
    3.9310   -5.4049    0.0000 C   0  0
    3.4698   -6.8322    0.0000 C   0  0
    4.4753   -7.9453    0.0000 C   0  0
    2.0030   -7.1464    0.0000 C   0  0
    1.5418   -8.5738    0.0000 C   0  0
    0.9976   -6.0333    0.0000 C   0  0
   -0.4692   -6.3476    0.0000 O   0  0
    1.4588   -4.6060    0.0000 O   0  0
  1  2  1  0
  2  3  2  0
  2  4  1  0
  4  5  1  0
  6  5  1  1
  6  7  1  0
  7  8  1  0
  9  8  1  1
  9 10  1  0
 10 11  1  6
 11 12  1  0
 12 13  2  0
 13 14  1  0
 14 15  1  0
 15 16  2  0
 16 17  1  0
 17 18  2  0
 17 19  1  0
 19 13  1  0
 19  9  1  0
 19 20  1  1
 10 21  1  0
 21  6  1  0
 21 22  1  6
 21 23  1  0
 23 24  1  6
 23 25  1  0
 25 26  1  0
 26  6  1  0
 26 27  1  1
 26 28  1  0
 28 29  1  6
 28 30  1  0
 28 31  1  0
 31 32  1  1
 32 33  1  0
 33 34  1  0
 33 35  2  0
 35 36  1  0
 35 37  1  0
 37 38  2  0
 37 39  1  0
 39 31  1  0
M  END
> <assay_chembl_id>
CHEMBL4431743

> <assay_description>
Cytotoxicity against human LNCAP cells after 72 hrs by resazurin-based colorimetric assay

> <document_journal>
J Nat Prod

> <molecule_chembl_id>
CHEMBL4060133

> <standard_value>
190

> <IC50_uM>
0.19

> <Activity>
Yes

> <Canonical_Smiles>
CC(=O)OC[C@]12CC[C@H]3[C@@H](CC=C4CC=CC(=O)[C@@]43C)[C@]1(O)[C@@H](O)C[C@@]2(O)[C@@](C)(O)[C@H]1CC(C)=C(C)C(=O)O1

$$$$

  SciTegic03142313312D

 47 51  0  0  1  0            999 V2000
    5.3417    1.2261    0.0000 C   0  0
    4.0974    2.0638    0.0000 C   0  0
    4.2013    3.5602    0.0000 O   0  0
    2.7493    1.4044    0.0000 O   0  0
    2.6454   -0.0929    0.0000 C   0  0
    1.2990   -0.7500    0.0000 C   0  0  2  0  0  0
    1.2990    0.7500    0.0000 C   0  0
    0.0000    1.5000    0.0000 C   0  0
   -1.2990    0.7500    0.0000 C   0  0  1  0  0  0
   -1.2990   -0.7500    0.0000 C   0  0  1  0  0  0
   -2.5981   -1.5000    0.0000 C   0  0
   -3.8971   -0.7500    0.0000 C   0  0
   -3.8971    0.7500    0.0000 C   0  0
   -5.1962    1.5000    0.0000 C   0  0
   -5.1962    3.0000    0.0000 C   0  0  1  0  0  0
   -6.4975    3.7477    0.0000 O   0  0
   -7.7962    2.9955    0.0000 S   0  0
   -9.0967    3.7428    0.0000 O   0  0
   -7.7935    1.4955    0.0000 O   0  0
   -9.0938    2.2430    0.0000 O   0  0
   -3.8971    3.7500    0.0000 C   0  0
   -2.5981    3.0000    0.0000 C   0  0
   -1.2991    3.7500    0.0000 O   0  0
   -2.5981    1.5000    0.0000 C   0  0  2  0  0  0
   -1.2990    2.2500    0.0000 C   0  0
    0.0000   -1.5000    0.0000 C   0  0  1  0  0  0
   -1.2146   -2.3802    0.0000 O   0  0
    0.3061   -2.9572    0.0000 C   0  0  1  0  0  0
   -0.7018   -4.0658    0.0000 O   0  0
   -2.1685   -3.7476    0.0000 C   0  0
   -2.6256   -2.3189    0.0000 C   0  0
   -3.1776   -4.8575    0.0000 O   0  0
    1.7979   -3.1140    0.0000 C   0  0
    2.4080   -1.7437    0.0000 C   0  0  2  0  0  0
    2.7008   -0.7875    0.0000 O   0  0
    3.3870   -2.8636    0.0000 C   0  0  1  0  0  0
    4.3923   -3.9769    0.0000 C   0  0
    4.8538   -2.5499    0.0000 O   0  0
    2.9255   -4.2918    0.0000 C   0  0  1  0  0  0
    3.9310   -5.4049    0.0000 C   0  0
    3.4698   -6.8322    0.0000 C   0  0
    4.4753   -7.9453    0.0000 C   0  0
    2.0030   -7.1464    0.0000 C   0  0
    1.5418   -8.5738    0.0000 C   0  0
    0.9976   -6.0333    0.0000 C   0  0
   -0.4692   -6.3476    0.0000 O   0  0
    1.4588   -4.6060    0.0000 O   0  0
  1  2  1  0
  2  3  2  0
  2  4  1  0
  4  5  1  0
  6  5  1  1
  6  7  1  0
  7  8  1  0
  9  8  1  1
  9 10  1  0
 10 11  1  6
 11 12  1  0
 12 13  2  0
 13 14  1  0
 14 15  1  0
 15 16  1  1
 16 17  1  0
 17 18  2  0
 17 19  2  0
 17 20  1  0
 15 21  1  0
 21 22  1  0
 22 23  2  0
 22 24  1  0
 24 13  1  0
 24  9  1  0
 24 25  1  1
 10 26  1  0
 26  6  1  0
 26 27  1  6
 26 28  1  0
 28 29  1  6
 29 30  1  0
 30 31  1  0
 30 32  2  0
 28 33  1  0
 33 34  1  0
 34  6  1  0
 34 35  1  1
 34 36  1  0
 36 37  1  6
 36 38  1  0
 36 39  1  0
 39 40  1  1
 40 41  1  0
 41 42  1  0
 41 43  2  0
 43 44  1  0
 43 45  1  0
 45 46  2  0
 45 47  1  0
 47 39  1  0
M  END
> <assay_chembl_id>
CHEMBL4431743

> <assay_description>
Cytotoxicity against human LNCAP cells after 72 hrs by resazurin-based colorimetric assay

> <document_journal>
J Nat Prod

> <molecule_chembl_id>
CHEMBL4091018

> <standard_value>
120

> <IC50_uM>
0.12

> <Activity>
Yes

> <Canonical_Smiles>
CC(=O)OC[C@]12CC[C@H]3[C@@H](CC=C4C[C@@H](OS(=O)(=O)O)CC(=O)[C@@]43C)[C@]1(O)[C@@H](OC(C)=O)C[C@@]2(O)[C@@](C)(O)[C@H]1CC(C)=C(C)C(=O)O1

$$$$

  SciTegic03142313312D

 34 39  0  0  1  0            999 V2000
    6.5160    8.5192    0.0000 C   0  0
    6.4746    7.0197    0.0000 C   0  0
    7.7525    6.2342    0.0000 C   0  0
    9.0739    6.9457    0.0000 C   0  0
   10.3507    6.1583    0.0000 O   0  0
    7.7111    4.7347    0.0000 C   0  0
    8.9889    3.9492    0.0000 O   0  0
    6.3919    4.0209    0.0000 O   0  0
    5.1139    4.8064    0.0000 C   0  0  1  0  0  0
    3.7930    4.0939    0.0000 C   0  0  1  0  0  0
    2.5164    4.8816    0.0000 C   0  0
    3.7489    2.5923    0.0000 C   0  0  1  0  0  0
    4.9853    1.9143    0.0000 C   0  0
    4.9853    0.4786    0.0000 C   0  0
    2.4328    0.4786    0.0000 C   0  0  1  0  0  0
    1.1965    0.0000    0.0000 C   0  0  2  0  0  0
    1.1965   -1.7149    0.0000 C   0  0
    0.0000   -2.4328    0.0000 C   0  0  1  0  0  0
   -1.2762   -3.1507    0.0000 O   0  0
   -1.2762   -1.7149    0.0000 C   0  0  2  0  0  0
   -2.5126   -2.4328    0.0000 C   0  0  1  0  0  0
   -2.5023   -3.9328    0.0000 O   0  0
   -3.7888   -1.7149    0.0000 C   0  0
   -3.7888    0.0000    0.0000 C   0  0
   -2.5126    0.4786    0.0000 C   0  0
   -2.5047    1.9786    0.0000 O   0  0
   -1.2762    0.0000    0.0000 C   0  0  1  0  0  0
   -1.2683    1.5000    0.0000 C   0  0
    0.0000    0.4786    0.0000 C   0  0  1  0  0  0
    0.0000    1.9143    0.0000 C   0  0
    1.1965    2.5923    0.0000 C   0  0
    2.4328    1.9143    0.0000 C   0  0  2  0  0  0
    2.4522    3.4142    0.0000 C   0  0
    5.1554    6.3059    0.0000 C   0  0
  1  2  1  0
  2  3  2  0
  3  4  1  0
  4  5  1  0
  3  6  1  0
  6  7  2  0
  6  8  1  0
  9  8  1  1
  9 10  1  0
 10 11  1  6
 10 12  1  0
 12 13  1  1
 13 14  1  0
 15 14  1  1
 15 16  1  0
 16 17  1  6
 18 17  1  1
 18 19  1  0
 20 19  1  1
 20 18  1  0
 20 21  1  0
 21 22  1  1
 21 23  1  0
 23 24  2  0
 24 25  1  0
 25 26  2  0
 25 27  1  0
 27 20  1  0
 27 28  1  1
 27 29  1  0
 29 16  1  0
 29 30  1  1
 30 31  1  0
 31 32  1  0
 32 12  1  0
 32 15  1  0
 32 33  1  1
  9 34  1  0
 34  2  1  0
M  END
> <assay_chembl_id>
CHEMBL4431743

> <assay_description>
Cytotoxicity against human LNCAP cells after 72 hrs by resazurin-based colorimetric assay

> <document_journal>
J Nat Prod

> <molecule_chembl_id>
CHEMBL517080

> <standard_value>
870

> <IC50_uM>
0.87

> <Activity>
Yes

> <Canonical_Smiles>
CC1=C(CO)C(=O)O[C@@H]([C@@H](C)[C@H]2CC[C@H]3[C@@H]4C[C@H]5O[C@]56[C@@H](O)C=CC(=O)[C@]6(C)[C@H]4CC[C@]23C)C1

$$$$

  SciTegic03142313312D

 43 47  0  0  1  0            999 V2000
    5.3417    1.2261    0.0000 C   0  0
    4.0974    2.0638    0.0000 C   0  0
    4.2013    3.5602    0.0000 O   0  0
    2.7493    1.4044    0.0000 O   0  0
    2.6454   -0.0929    0.0000 C   0  0
    1.2990   -0.7500    0.0000 C   0  0  2  0  0  0
    1.2990    0.7500    0.0000 C   0  0
    0.0000    1.5000    0.0000 C   0  0
   -1.2990    0.7500    0.0000 C   0  0  1  0  0  0
   -1.2990   -0.7500    0.0000 C   0  0  1  0  0  0
   -2.5981   -1.5000    0.0000 C   0  0
   -3.8971   -0.7500    0.0000 C   0  0
   -3.8971    0.7500    0.0000 C   0  0
   -5.1962    1.5000    0.0000 C   0  0
   -5.1962    3.0000    0.0000 C   0  0  1  0  0  0
   -6.4975    3.7477    0.0000 O   0  0
   -7.7962    2.9955    0.0000 S   0  0
   -9.0967    3.7428    0.0000 O   0  0
   -7.7935    1.4955    0.0000 O   0  0
   -9.0938    2.2430    0.0000 O   0  0
   -3.8971    3.7500    0.0000 C   0  0
   -2.5981    3.0000    0.0000 C   0  0
   -1.2991    3.7500    0.0000 O   0  0
   -2.5981    1.5000    0.0000 C   0  0  2  0  0  0
   -1.2990    2.2500    0.0000 C   0  0
    0.0000   -1.5000    0.0000 C   0  0  1  0  0  0
   -1.2146   -2.3802    0.0000 O   0  0
    0.3061   -2.9572    0.0000 C   0  0
    1.7979   -3.1140    0.0000 C   0  0
    2.4080   -1.7437    0.0000 C   0  0  2  0  0  0
    2.7008   -0.7875    0.0000 O   0  0
    3.3870   -2.8636    0.0000 C   0  0  1  0  0  0
    4.3923   -3.9769    0.0000 C   0  0
    4.8538   -2.5499    0.0000 O   0  0
    2.9255   -4.2918    0.0000 C   0  0  1  0  0  0
    3.9310   -5.4049    0.0000 C   0  0
    3.4698   -6.8322    0.0000 C   0  0
    4.4753   -7.9453    0.0000 C   0  0
    2.0030   -7.1464    0.0000 C   0  0
    1.5418   -8.5738    0.0000 C   0  0
    0.9976   -6.0333    0.0000 C   0  0
   -0.4692   -6.3476    0.0000 O   0  0
    1.4588   -4.6060    0.0000 O   0  0
  1  2  1  0
  2  3  2  0
  2  4  1  0
  4  5  1  0
  6  5  1  1
  6  7  1  0
  7  8  1  0
  9  8  1  1
  9 10  1  0
 10 11  1  6
 11 12  1  0
 12 13  2  0
 13 14  1  0
 14 15  1  0
 15 16  1  1
 16 17  1  0
 17 18  2  0
 17 19  2  0
 17 20  1  0
 15 21  1  0
 21 22  1  0
 22 23  2  0
 22 24  1  0
 24 13  1  0
 24  9  1  0
 24 25  1  1
 10 26  1  0
 26  6  1  0
 26 27  1  6
 26 28  1  0
 28 29  1  0
 29 30  1  0
 30  6  1  0
 30 31  1  1
 30 32  1  0
 32 33  1  6
 32 34  1  0
 32 35  1  0
 35 36  1  1
 36 37  1  0
 37 38  1  0
 37 39  2  0
 39 40  1  0
 39 41  1  0
 41 42  2  0
 41 43  1  0
 43 35  1  0
M  END
> <assay_chembl_id>
CHEMBL4431743

> <assay_description>
Cytotoxicity against human LNCAP cells after 72 hrs by resazurin-based colorimetric assay

> <document_journal>
J Nat Prod

> <molecule_chembl_id>
CHEMBL4075872

> <standard_value>
210

> <IC50_uM>
0.21

> <Activity>
Yes

> <Canonical_Smiles>
CC(=O)OC[C@]12CC[C@H]3[C@@H](CC=C4C[C@@H](OS(=O)(=O)O)CC(=O)[C@@]43C)[C@]1(O)CC[C@@]2(O)[C@@](C)(O)[C@H]1CC(C)=C(C)C(=O)O1

$$$$

  SciTegic03142313312D

 30 33  0  0  0  0            999 V2000
    7.8029   -2.9887    0.0000 O   0  0
    7.8003   -1.4887    0.0000 C   0  0
    6.4990   -0.7409    0.0000 C   0  0
    5.2003   -1.4932    0.0000 C   0  0
    3.8990   -0.7455    0.0000 C   0  0
    2.6003   -1.4977    0.0000 C   0  0
    1.2990   -0.7500    0.0000 C   0  0
    1.2990    0.7500    0.0000 C   0  0
    0.0000    1.5000    0.0000 C   0  0
   -1.2990    0.7500    0.0000 N   0  0
   -1.2990   -0.7500    0.0000 C   0  0
   -2.5981   -1.5000    0.0000 C   0  0
   -2.5981   -3.0000    0.0000 C   0  0
   -1.2990   -3.7500    0.0000 C   0  0
    0.0000   -3.0000    0.0000 C   0  0
    0.0000   -1.5000    0.0000 C   0  0
    9.0990   -0.7364    0.0000 C   0  0
   10.4003   -1.4841    0.0000 C   0  0
   11.6990   -0.7319    0.0000 C   0  0
   13.0002   -1.4796    0.0000 C   0  0
   14.2989   -0.7273    0.0000 C   0  0
   14.2938    0.7727    0.0000 C   0  0
   15.5902    1.5272    0.0000 C   0  0
   16.8919    0.7817    0.0000 N   0  0
   16.8971   -0.7183    0.0000 C   0  0
   18.1987   -1.4638    0.0000 C   0  0
   18.2039   -2.9638    0.0000 C   0  0
   16.9074   -3.7183    0.0000 C   0  0
   15.6058   -2.9728    0.0000 C   0  0
   15.6006   -1.4728    0.0000 C   0  0
  1  2  2  0
  2  3  1  0
  3  4  2  0
  4  5  1  0
  5  6  2  0
  6  7  1  0
  7  8  2  0
  8  9  1  0
  9 10  2  0
 10 11  1  0
 11 12  2  0
 12 13  1  0
 13 14  2  0
 14 15  1  0
 15 16  2  0
 16  7  1  0
 16 11  1  0
  2 17  1  0
 17 18  2  0
 18 19  1  0
 19 20  2  0
 20 21  1  0
 21 22  2  0
 22 23  1  0
 23 24  2  0
 24 25  1  0
 25 26  2  0
 26 27  1  0
 27 28  2  0
 28 29  1  0
 29 30  2  0
 30 21  1  0
 30 25  1  0
M  END
> <assay_chembl_id>
CHEMBL4432684

> <assay_description>
Antiproliferative activity against human LNCAP cells after 3 days by WST or trypan blue assay

> <document_journal>
Bioorg Med Chem

> <molecule_chembl_id>
CHEMBL4450686

> <standard_value>
980

> <IC50_uM>
0.98

> <Activity>
Yes

> <Canonical_Smiles>
O=C(/C=C/C=C/c1ccnc2ccccc12)/C=C/C=C/c1ccnc2ccccc12

$$$$

  SciTegic03142313312D

 30 33  0  0  0  0            999 V2000
   -0.6923   -4.0811    0.0000 C   0  0
    0.3114   -2.9665    0.0000 N   0  0
    1.8032   -3.1233    0.0000 C   0  0
    2.5551   -4.4192    0.0000 C   0  0
    4.0559   -4.4171    0.0000 C   0  0
    4.8090   -5.7153    0.0000 C   0  0
    6.3098   -5.7131    0.0000 C   0  0
    7.0629   -7.0113    0.0000 C   0  0
    6.3152   -8.3116    0.0000 O   0  0
    8.5638   -7.0091    0.0000 C   0  0
    9.3169   -8.3073    0.0000 C   0  0
   10.8177   -8.3051    0.0000 C   0  0
   11.5708   -9.6033    0.0000 C   0  0
   13.0716   -9.6011    0.0000 C   0  0
   13.9272   -8.3846    0.0000 N   0  0
   15.3546   -8.8431    0.0000 C   0  0
   16.6510   -8.0886    0.0000 C   0  0
   17.9526   -8.8341    0.0000 C   0  0
   17.9579  -10.3340    0.0000 C   0  0
   16.6615  -11.0886    0.0000 C   0  0
   15.3598  -10.3431    0.0000 C   0  0
   13.9357  -10.8116    0.0000 N   0  0
   13.4688  -12.2371    0.0000 C   0  0
    2.4133   -1.7530    0.0000 N   0  0
    1.2990   -0.7500    0.0000 C   0  0
    1.2990    0.7500    0.0000 C   0  0
    0.0000    1.5000    0.0000 C   0  0
   -1.2990    0.7500    0.0000 C   0  0
   -1.2990   -0.7500    0.0000 C   0  0
    0.0000   -1.5000    0.0000 C   0  0
  1  2  1  0
  2  3  1  0
  3  4  1  0
  4  5  2  0
  5  6  1  0
  6  7  2  0
  7  8  1  0
  8  9  2  0
  8 10  1  0
 10 11  2  0
 11 12  1  0
 12 13  2  0
 13 14  1  0
 14 15  2  0
 15 16  1  0
 16 17  2  0
 17 18  1  0
 18 19  2  0
 19 20  1  0
 20 21  2  0
 21 16  1  0
 21 22  1  0
 22 14  1  0
 22 23  1  0
  3 24  2  0
 24 25  1  0
 25 26  2  0
 26 27  1  0
 27 28  2  0
 28 29  1  0
 29 30  2  0
 30 25  1  0
 30  2  1  0
M  END
> <assay_chembl_id>
CHEMBL4432684

> <assay_description>
Antiproliferative activity against human LNCAP cells after 3 days by WST or trypan blue assay

> <document_journal>
Bioorg Med Chem

> <molecule_chembl_id>
CHEMBL4447468

> <standard_value>
970

> <IC50_uM>
0.97

> <Activity>
Yes

> <Canonical_Smiles>
Cn1c(/C=C/C=C/C(=O)/C=C/C=C/c2nc3ccccc3n2C)nc2ccccc21

$$$$

  SciTegic03142313312D

 34 35  0  0  0  0            999 V2000
    1.2948   -3.7516    0.0000 O   0  0
    2.5951   -3.0039    0.0000 C   0  0
    2.5973   -1.5031    0.0000 N   0  0
    1.2990   -0.7500    0.0000 C   0  0
    1.2990    0.7500    0.0000 C   0  0
    0.0000    1.5000    0.0000 C   0  0
   -1.2990    0.7500    0.0000 C   0  0
   -2.5973    1.5031    0.0000 N   0  3
   -2.5951    3.0031    0.0000 O   0  0
   -3.8976    0.7553    0.0000 O   0  5
   -1.2990   -0.7500    0.0000 C   0  0
   -2.5988   -1.5004    0.0000 C   0  0
   -3.8983   -0.7513    0.0000 F   0  0
   -2.5983   -3.0004    0.0000 F   0  0
   -3.8975   -2.2510    0.0000 F   0  0
    0.0000   -1.5000    0.0000 C   0  0
    3.8933   -3.7570    0.0000 C   0  0  3  0  0  0
    2.5930   -4.5047    0.0000 O   0  0
    3.8912   -5.2578    0.0000 C   0  0
    5.1894   -6.0109    0.0000 S   0  0
    5.1873   -7.5117    0.0000 C   0  0
    3.8856   -8.2573    0.0000 C   0  0
    3.8804   -9.7573    0.0000 C   0  0
    5.1769  -10.5118    0.0000 C   0  0
    6.4785   -9.7663    0.0000 C   0  0
    6.4837   -8.2663    0.0000 C   0  0
    7.7860   -7.5204    0.0000 C   0  0
    9.0829   -8.2741    0.0000 F   0  0
    7.7908   -6.0204    0.0000 F   0  0
    9.0873   -6.7743    0.0000 F   0  0
    5.1943   -3.0089    0.0000 C   0  0
    6.4925   -3.7603    0.0000 F   0  0
    6.4943   -2.2605    0.0000 F   0  0
    5.1965   -1.5089    0.0000 F   0  0
  1  2  2  0
  2  3  1  0
  3  4  1  0
  4  5  2  0
  5  6  1  0
  6  7  2  0
  7  8  1  0
  8  9  2  0
  8 10  1  0
  7 11  1  0
 11 12  1  0
 12 13  1  0
 12 14  1  0
 12 15  1  0
 11 16  2  0
 16  4  1  0
  2 17  1  0
 17 18  1  4
 17 19  1  0
 19 20  1  0
 20 21  1  0
 21 22  2  0
 22 23  1  0
 23 24  2  0
 24 25  1  0
 25 26  2  0
 26 21  1  0
 26 27  1  0
 27 28  1  0
 27 29  1  0
 27 30  1  0
 17 31  1  0
 31 32  1  0
 31 33  1  0
 31 34  1  0
M  CHG  2   8   1  10  -1
M  END
> <assay_chembl_id>
CHEMBL4477865

> <assay_description>
Antiproliferative activity against human LNCAP cells after 96 hrs by propidium iodide staining based fluorescence 2D monolayer assay

> <document_journal>
Eur J Med Chem

> <molecule_chembl_id>
CHEMBL4572299

> <standard_value>
719

> <IC50_uM>
0.719

> <Activity>
Yes

> <Canonical_Smiles>
O=C(Nc1ccc([N+](=O)[O-])c(C(F)(F)F)c1)C(O)(CSc1ccccc1C(F)(F)F)C(F)(F)F

$$$$

  SciTegic03142313312D

 31 32  0  0  0  0            999 V2000
    5.1937   -3.0093    0.0000 C   0  0
    3.8933   -3.7570    0.0000 C   0  0  3  0  0  0
    3.8962   -2.2570    0.0000 O   0  0
    2.5951   -3.0039    0.0000 C   0  0
    2.5973   -1.5031    0.0000 S   0  0
    1.2990   -0.7500    0.0000 C   0  0
    1.2990    0.7500    0.0000 C   0  0
    0.0000    1.5000    0.0000 C   0  0
   -1.2990    0.7500    0.0000 C   0  0
   -2.6003    1.4977    0.0000 O   0  0
   -3.8990    0.7455    0.0000 C   0  0
   -5.1996    1.4928    0.0000 F   0  0
   -3.8964   -0.7545    0.0000 F   0  0
   -5.1966   -0.0070    0.0000 F   0  0
   -1.2990   -0.7500    0.0000 C   0  0
    0.0000   -1.5000    0.0000 C   0  0
    3.8912   -5.2578    0.0000 C   0  0
    2.5909   -6.0056    0.0000 O   0  0
    5.1894   -6.0109    0.0000 N   0  0
    5.1873   -7.5117    0.0000 C   0  0
    6.4837   -8.2663    0.0000 C   0  0
    6.4785   -9.7663    0.0000 C   0  0
    5.1769  -10.5118    0.0000 C   0  0
    5.1717  -12.0126    0.0000 C   0  0
    5.1665  -13.5126    0.0000 N   0  0
    3.8804   -9.7573    0.0000 C   0  0
    2.5781  -10.5032    0.0000 C   0  0
    2.5720  -12.0032    0.0000 F   0  0
    1.2819   -9.7483    0.0000 F   0  0
    1.2761  -11.2481    0.0000 F   0  0
    3.8856   -8.2573    0.0000 C   0  0
  2  1  1  4
  2  3  1  0
  2  4  1  0
  4  5  1  0
  5  6  1  0
  6  7  2  0
  7  8  1  0
  8  9  2  0
  9 10  1  0
 10 11  1  0
 11 12  1  0
 11 13  1  0
 11 14  1  0
  9 15  1  0
 15 16  2  0
 16  6  1  0
  2 17  1  0
 17 18  2  0
 17 19  1  0
 19 20  1  0
 20 21  2  0
 21 22  1  0
 22 23  2  0
 23 24  1  0
 24 25  3  0
 23 26  1  0
 26 27  1  0
 27 28  1  0
 27 29  1  0
 27 30  1  0
 26 31  2  0
 31 20  1  0
M  END
> <assay_chembl_id>
CHEMBL4477865

> <assay_description>
Antiproliferative activity against human LNCAP cells after 96 hrs by propidium iodide staining based fluorescence 2D monolayer assay

> <document_journal>
Eur J Med Chem

> <molecule_chembl_id>
CHEMBL4532191

> <standard_value>
42810

> <IC50_uM>
42.81

> <Activity>
No

> <Canonical_Smiles>
CC(O)(CSc1ccc(OC(F)(F)F)cc1)C(=O)Nc1ccc(C#N)c(C(F)(F)F)c1

$$$$

  SciTegic03142313312D

 30 31  0  0  0  0            999 V2000
    5.1937   -3.0093    0.0000 C   0  0
    3.8933   -3.7570    0.0000 C   0  0  3  0  0  0
    3.8962   -2.2570    0.0000 O   0  0
    2.5951   -3.0039    0.0000 C   0  0
    2.5973   -1.5031    0.0000 S   0  0
    1.2990   -0.7500    0.0000 C   0  0
    1.2990    0.7500    0.0000 C   0  0
    0.0000    1.5000    0.0000 C   0  0
   -1.2990    0.7500    0.0000 C   0  0
   -2.5988    1.5004    0.0000 C   0  0
   -2.5998    3.0004    0.0000 F   0  0
   -3.8976    0.7500    0.0000 F   0  0
   -3.8982    2.2498    0.0000 F   0  0
   -1.2990   -0.7500    0.0000 C   0  0
    0.0000   -1.5000    0.0000 N   0  0
    3.8912   -5.2578    0.0000 C   0  0
    2.5909   -6.0056    0.0000 O   0  0
    5.1894   -6.0109    0.0000 N   0  0
    5.1873   -7.5117    0.0000 C   0  0
    6.4837   -8.2663    0.0000 C   0  0
    6.4785   -9.7663    0.0000 C   0  0
    5.1769  -10.5118    0.0000 C   0  0
    5.1717  -12.0126    0.0000 C   0  0
    5.1665  -13.5126    0.0000 N   0  0
    3.8804   -9.7573    0.0000 C   0  0
    2.5781  -10.5032    0.0000 C   0  0
    2.5720  -12.0032    0.0000 F   0  0
    1.2819   -9.7483    0.0000 F   0  0
    1.2761  -11.2481    0.0000 F   0  0
    3.8856   -8.2573    0.0000 C   0  0
  2  1  1  4
  2  3  1  0
  2  4  1  0
  4  5  1  0
  5  6  1  0
  6  7  2  0
  7  8  1  0
  8  9  2  0
  9 10  1  0
 10 11  1  0
 10 12  1  0
 10 13  1  0
  9 14  1  0
 14 15  2  0
 15  6  1  0
  2 16  1  0
 16 17  2  0
 16 18  1  0
 18 19  1  0
 19 20  2  0
 20 21  1  0
 21 22  2  0
 22 23  1  0
 23 24  3  0
 22 25  1  0
 25 26  1  0
 26 27  1  0
 26 28  1  0
 26 29  1  0
 25 30  2  0
 30 19  1  0
M  END
> <assay_chembl_id>
CHEMBL4477865

> <assay_description>
Antiproliferative activity against human LNCAP cells after 96 hrs by propidium iodide staining based fluorescence 2D monolayer assay

> <document_journal>
Eur J Med Chem

> <molecule_chembl_id>
CHEMBL4558409

> <standard_value>
80720

> <IC50_uM>
80.72

> <Activity>
No

> <Canonical_Smiles>
CC(O)(CSc1ccc(C(F)(F)F)cn1)C(=O)Nc1ccc(C#N)c(C(F)(F)F)c1

$$$$

  SciTegic03142313312D

 31 32  0  0  0  0            999 V2000
    5.1937   -3.0093    0.0000 C   0  0
    3.8933   -3.7570    0.0000 C   0  0  3  0  0  0
    3.8962   -2.2570    0.0000 O   0  0
    2.5951   -3.0039    0.0000 C   0  0
    2.5973   -1.5031    0.0000 S   0  0
    1.2990   -0.7500    0.0000 C   0  0
    1.2990    0.7500    0.0000 C   0  0
    0.0000    1.5000    0.0000 C   0  0
   -1.2990    0.7500    0.0000 C   0  0
   -2.5988    1.5004    0.0000 C   0  0
   -2.5998    3.0004    0.0000 F   0  0
   -3.8976    0.7500    0.0000 F   0  0
   -3.8982    2.2498    0.0000 F   0  0
   -1.2990   -0.7500    0.0000 C   0  0
    0.0000   -1.5000    0.0000 C   0  0
    3.8912   -5.2578    0.0000 C   0  0
    2.5909   -6.0056    0.0000 O   0  0
    5.1894   -6.0109    0.0000 N   0  0
    5.1873   -7.5117    0.0000 C   0  0
    6.4837   -8.2663    0.0000 C   0  0
    6.4785   -9.7663    0.0000 C   0  0
    5.1769  -10.5118    0.0000 C   0  0
    5.1748  -12.0126    0.0000 N   0  3
    6.4723  -12.7653    0.0000 O   0  0
    3.8744  -12.7604    0.0000 O   0  5
    3.8804   -9.7573    0.0000 C   0  0
    2.5781  -10.5032    0.0000 C   0  0
    2.5720  -12.0032    0.0000 F   0  0
    1.2819   -9.7483    0.0000 F   0  0
    1.2761  -11.2481    0.0000 F   0  0
    3.8856   -8.2573    0.0000 C   0  0
  2  1  1  4
  2  3  1  0
  2  4  1  0
  4  5  1  0
  5  6  1  0
  6  7  2  0
  7  8  1  0
  8  9  2  0
  9 10  1  0
 10 11  1  0
 10 12  1  0
 10 13  1  0
  9 14  1  0
 14 15  2  0
 15  6  1  0
  2 16  1  0
 16 17  2  0
 16 18  1  0
 18 19  1  0
 19 20  2  0
 20 21  1  0
 21 22  2  0
 22 23  1  0
 23 24  2  0
 23 25  1  0
 22 26  1  0
 26 27  1  0
 27 28  1  0
 27 29  1  0
 27 30  1  0
 26 31  2  0
 31 19  1  0
M  CHG  2  23   1  25  -1
M  END
> <assay_chembl_id>
CHEMBL4477865

> <assay_description>
Antiproliferative activity against human LNCAP cells after 96 hrs by propidium iodide staining based fluorescence 2D monolayer assay

> <document_journal>
Eur J Med Chem

> <molecule_chembl_id>
CHEMBL4587862

> <standard_value>
28710

> <IC50_uM>
28.71

> <Activity>
No

> <Canonical_Smiles>
CC(O)(CSc1ccc(C(F)(F)F)cc1)C(=O)Nc1ccc([N+](=O)[O-])c(C(F)(F)F)c1

$$$$

  SciTegic03142313312D

 27 28  0  0  0  0            999 V2000
    5.1937   -3.0093    0.0000 C   0  0
    3.8933   -3.7570    0.0000 C   0  0  3  0  0  0
    3.8962   -2.2570    0.0000 O   0  0
    2.5951   -3.0039    0.0000 C   0  0
    2.5973   -1.5031    0.0000 S   0  0
    1.2990   -0.7500    0.0000 C   0  0
    1.2990    0.7500    0.0000 C   0  0
    0.0000    1.5000    0.0000 C   0  0
   -1.2990    0.7500    0.0000 C   0  0
   -2.5981    1.5000    0.0000 F   0  0
   -1.2990   -0.7500    0.0000 C   0  0
    0.0000   -1.5000    0.0000 C   0  0
    3.8912   -5.2578    0.0000 C   0  0
    2.5909   -6.0056    0.0000 O   0  0
    5.1894   -6.0109    0.0000 N   0  0
    5.1873   -7.5117    0.0000 C   0  0
    3.8856   -8.2573    0.0000 C   0  0
    3.8804   -9.7573    0.0000 C   0  0
    5.1769  -10.5118    0.0000 C   0  0
    5.1717  -12.0126    0.0000 C   0  0
    5.1665  -13.5126    0.0000 N   0  0
    6.4785   -9.7663    0.0000 C   0  0
    6.4837   -8.2663    0.0000 C   0  0
    7.7860   -7.5204    0.0000 C   0  0
    9.0829   -8.2741    0.0000 F   0  0
    7.7908   -6.0204    0.0000 F   0  0
    9.0873   -6.7743    0.0000 F   0  0
  2  1  1  4
  2  3  1  0
  2  4  1  0
  4  5  1  0
  5  6  1  0
  6  7  2  0
  7  8  1  0
  8  9  2  0
  9 10  1  0
  9 11  1  0
 11 12  2  0
 12  6  1  0
  2 13  1  0
 13 14  2  0
 13 15  1  0
 15 16  1  0
 16 17  2  0
 17 18  1  0
 18 19  2  0
 19 20  1  0
 20 21  3  0
 19 22  1  0
 22 23  2  0
 23 16  1  0
 23 24  1  0
 24 25  1  0
 24 26  1  0
 24 27  1  0
M  END
> <assay_chembl_id>
CHEMBL4477865

> <assay_description>
Antiproliferative activity against human LNCAP cells after 96 hrs by propidium iodide staining based fluorescence 2D monolayer assay

> <document_journal>
Eur J Med Chem

> <molecule_chembl_id>
CHEMBL4557725

> <standard_value>
26450

> <IC50_uM>
26.45

> <Activity>
No

> <Canonical_Smiles>
CC(O)(CSc1ccc(F)cc1)C(=O)Nc1ccc(C#N)cc1C(F)(F)F

$$$$

  SciTegic03142313312D

 29 30  0  0  0  0            999 V2000
    5.1937   -3.0093    0.0000 C   0  0
    3.8933   -3.7570    0.0000 C   0  0  3  0  0  0
    3.8962   -2.2570    0.0000 O   0  0
    2.5951   -3.0039    0.0000 C   0  0
    2.5973   -1.5031    0.0000 S   0  0
    1.2990   -0.7500    0.0000 C   0  0
    1.2990    0.7500    0.0000 C   0  0
    0.0000    1.5000    0.0000 C   0  0
   -1.2990    0.7500    0.0000 C   0  0
   -2.5981    1.5000    0.0000 F   0  0
   -1.2990   -0.7500    0.0000 C   0  0
   -2.5981   -1.5000    0.0000 F   0  0
    0.0000   -1.5000    0.0000 C   0  0
    3.8912   -5.2578    0.0000 C   0  0
    2.5909   -6.0056    0.0000 O   0  0
    5.1894   -6.0109    0.0000 N   0  0
    5.1873   -7.5117    0.0000 C   0  0
    3.8856   -8.2573    0.0000 C   0  0
    3.8804   -9.7573    0.0000 C   0  0
    5.1769  -10.5118    0.0000 C   0  0
    5.1748  -12.0126    0.0000 N   0  3
    6.4723  -12.7653    0.0000 O   0  0
    3.8745  -12.7604    0.0000 O   0  5
    6.4785   -9.7663    0.0000 C   0  0
    6.4837   -8.2663    0.0000 C   0  0
    7.7860   -7.5204    0.0000 C   0  0
    9.0829   -8.2741    0.0000 F   0  0
    7.7908   -6.0204    0.0000 F   0  0
    9.0873   -6.7743    0.0000 F   0  0
  2  1  1  4
  2  3  1  0
  2  4  1  0
  4  5  1  0
  5  6  1  0
  6  7  2  0
  7  8  1  0
  8  9  2  0
  9 10  1  0
  9 11  1  0
 11 12  1  0
 11 13  2  0
 13  6  1  0
  2 14  1  0
 14 15  2  0
 14 16  1  0
 16 17  1  0
 17 18  2  0
 18 19  1  0
 19 20  2  0
 20 21  1  0
 21 22  2  0
 21 23  1  0
 20 24  1  0
 24 25  2  0
 25 17  1  0
 25 26  1  0
 26 27  1  0
 26 28  1  0
 26 29  1  0
M  CHG  2  21   1  23  -1
M  END
> <assay_chembl_id>
CHEMBL4477865

> <assay_description>
Antiproliferative activity against human LNCAP cells after 96 hrs by propidium iodide staining based fluorescence 2D monolayer assay

> <document_journal>
Eur J Med Chem

> <molecule_chembl_id>
CHEMBL4549796

> <standard_value>
83040

> <IC50_uM>
83.04

> <Activity>
No

> <Canonical_Smiles>
CC(O)(CSc1ccc(F)c(F)c1)C(=O)Nc1ccc([N+](=O)[O-])cc1C(F)(F)F

$$$$

  SciTegic03142313312D

 32 33  0  0  0  0            999 V2000
    5.1937   -3.0093    0.0000 C   0  0
    3.8933   -3.7570    0.0000 C   0  0  3  0  0  0
    3.8962   -2.2570    0.0000 O   0  0
    2.5951   -3.0039    0.0000 C   0  0
    2.5973   -1.5031    0.0000 S   0  0
    1.2990   -0.7500    0.0000 C   0  0
    1.2990    0.7500    0.0000 C   0  0
    0.0000    1.5000    0.0000 C   0  0
   -1.2990    0.7500    0.0000 C   0  0
   -2.6003    1.4977    0.0000 O   0  0
   -3.8990    0.7455    0.0000 C   0  0
   -5.1996    1.4928    0.0000 F   0  0
   -3.8964   -0.7545    0.0000 F   0  0
   -5.1966   -0.0070    0.0000 F   0  0
   -1.2990   -0.7500    0.0000 C   0  0
    0.0000   -1.5000    0.0000 C   0  0
    3.8912   -5.2578    0.0000 C   0  0
    2.5909   -6.0056    0.0000 O   0  0
    5.1894   -6.0109    0.0000 N   0  0
    5.1873   -7.5117    0.0000 C   0  0
    3.8856   -8.2573    0.0000 C   0  0
    3.8804   -9.7573    0.0000 C   0  0
    5.1769  -10.5118    0.0000 C   0  0
    5.1748  -12.0126    0.0000 N   0  3
    6.4723  -12.7653    0.0000 O   0  0
    3.8745  -12.7604    0.0000 O   0  5
    6.4785   -9.7663    0.0000 C   0  0
    6.4837   -8.2663    0.0000 C   0  0
    7.7860   -7.5204    0.0000 C   0  0
    9.0829   -8.2741    0.0000 F   0  0
    7.7908   -6.0204    0.0000 F   0  0
    9.0873   -6.7743    0.0000 F   0  0
  2  1  1  4
  2  3  1  0
  2  4  1  0
  4  5  1  0
  5  6  1  0
  6  7  2  0
  7  8  1  0
  8  9  2  0
  9 10  1  0
 10 11  1  0
 11 12  1  0
 11 13  1  0
 11 14  1  0
  9 15  1  0
 15 16  2  0
 16  6  1  0
  2 17  1  0
 17 18  2  0
 17 19  1  0
 19 20  1  0
 20 21  2  0
 21 22  1  0
 22 23  2  0
 23 24  1  0
 24 25  2  0
 24 26  1  0
 23 27  1  0
 27 28  2  0
 28 20  1  0
 28 29  1  0
 29 30  1  0
 29 31  1  0
 29 32  1  0
M  CHG  2  24   1  26  -1
M  END
> <assay_chembl_id>
CHEMBL4477865

> <assay_description>
Antiproliferative activity against human LNCAP cells after 96 hrs by propidium iodide staining based fluorescence 2D monolayer assay

> <document_journal>
Eur J Med Chem

> <molecule_chembl_id>
CHEMBL4584644

> <standard_value>
100000

> <IC50_uM>
100

> <Activity>
No

> <Canonical_Smiles>
CC(O)(CSc1ccc(OC(F)(F)F)cc1)C(=O)Nc1ccc([N+](=O)[O-])cc1C(F)(F)F

$$$$

  SciTegic03142313312D

 28 29  0  0  0  0            999 V2000
    5.1937   -3.0093    0.0000 C   0  0
    3.8933   -3.7570    0.0000 C   0  0  3  0  0  0
    3.8962   -2.2570    0.0000 O   0  0
    2.5951   -3.0039    0.0000 C   0  0
    2.5973   -1.5031    0.0000 S   0  0
    1.2990   -0.7500    0.0000 C   0  0
    1.2990    0.7500    0.0000 C   0  0
    0.0000    1.5000    0.0000 C   0  0
   -1.2990    0.7500    0.0000 C   0  0
   -1.2990   -0.7500    0.0000 C   0  0
   -2.5988   -1.5004    0.0000 C   0  0
   -3.8983   -0.7513    0.0000 F   0  0
   -2.5983   -3.0004    0.0000 F   0  0
   -3.8975   -2.2510    0.0000 F   0  0
    0.0000   -1.5000    0.0000 C   0  0
    3.8912   -5.2578    0.0000 C   0  0
    2.5909   -6.0056    0.0000 O   0  0
    5.1894   -6.0109    0.0000 N   0  0
    5.1873   -7.5117    0.0000 C   0  0
    6.4837   -8.2663    0.0000 C   0  0
    6.4785   -9.7663    0.0000 C   0  0
    5.1769  -10.5118    0.0000 C   0  0
    5.1717  -12.0126    0.0000 C   0  0
    6.4676  -12.7679    0.0000 F   0  0
    3.8698  -12.7577    0.0000 F   0  0
    5.1658  -13.5126    0.0000 F   0  0
    3.8804   -9.7573    0.0000 C   0  0
    3.8856   -8.2573    0.0000 C   0  0
  2  1  1  4
  2  3  1  0
  2  4  1  0
  4  5  1  0
  5  6  1  0
  6  7  2  0
  7  8  1  0
  8  9  2  0
  9 10  1  0
 10 11  1  0
 11 12  1  0
 11 13  1  0
 11 14  1  0
 10 15  2  0
 15  6  1  0
  2 16  1  0
 16 17  2  0
 16 18  1  0
 18 19  1  0
 19 20  2  0
 20 21  1  0
 21 22  2  0
 22 23  1  0
 23 24  1  0
 23 25  1  0
 23 26  1  0
 22 27  1  0
 27 28  2  0
 28 19  1  0
M  END
> <assay_chembl_id>
CHEMBL4477865

> <assay_description>
Antiproliferative activity against human LNCAP cells after 96 hrs by propidium iodide staining based fluorescence 2D monolayer assay

> <document_journal>
Eur J Med Chem

> <molecule_chembl_id>
CHEMBL4544680

> <standard_value>
22560

> <IC50_uM>
22.56

> <Activity>
No

> <Canonical_Smiles>
CC(O)(CSc1cccc(C(F)(F)F)c1)C(=O)Nc1ccc(C(F)(F)F)cc1

$$$$

  SciTegic03142313312D

 28 29  0  0  0  0            999 V2000
    5.2029   -2.9932    0.0000 C   0  0
    5.2003   -1.4932    0.0000 C   0  0  3  0  0  0
    3.9027   -2.2457    0.0000 O   0  0
    3.8990   -0.7455    0.0000 C   0  0
    2.6003   -1.4977    0.0000 O   0  0
    1.2990   -0.7500    0.0000 C   0  0
    1.2990    0.7500    0.0000 C   0  0
    0.0000    1.5000    0.0000 C   0  0
   -1.2990    0.7500    0.0000 C   0  0
   -2.5981    1.5000    0.0000 F   0  0
   -1.2990   -0.7500    0.0000 C   0  0
    0.0000   -1.5000    0.0000 C   0  0
    0.0000   -3.0000    0.0000 F   0  0
    6.4990   -0.7409    0.0000 C   0  0
    6.4964    0.7591    0.0000 O   0  0
    7.8003   -1.4887    0.0000 N   0  0
    9.0990   -0.7364    0.0000 C   0  0
   10.4007   -1.4818    0.0000 C   0  0
   11.6971   -0.7274    0.0000 C   0  0
   11.6919    0.7726    0.0000 C   0  0
   12.9891    1.5275    0.0000 C   0  0
   14.2855    2.2820    0.0000 N   0  0
   10.3903    1.5181    0.0000 C   0  0
   10.3851    3.0190    0.0000 C   0  0
   11.6811    3.7743    0.0000 F   0  0
    9.0832    3.7640    0.0000 F   0  0
   10.3792    4.5189    0.0000 F   0  0
    9.0939    0.7636    0.0000 C   0  0
  2  1  1  4
  2  3  1  0
  2  4  1  0
  4  5  1  0
  5  6  1  0
  6  7  2  0
  7  8  1  0
  8  9  2  0
  9 10  1  0
  9 11  1  0
 11 12  2  0
 12  6  1  0
 12 13  1  0
  2 14  1  0
 14 15  2  0
 14 16  1  0
 16 17  1  0
 17 18  2  0
 18 19  1  0
 19 20  2  0
 20 21  1  0
 21 22  3  0
 20 23  1  0
 23 24  1  0
 24 25  1  0
 24 26  1  0
 24 27  1  0
 23 28  2  0
 28 17  1  0
M  END
> <assay_chembl_id>
CHEMBL4477865

> <assay_description>
Antiproliferative activity against human LNCAP cells after 96 hrs by propidium iodide staining based fluorescence 2D monolayer assay

> <document_journal>
Eur J Med Chem

> <molecule_chembl_id>
CHEMBL4531189

> <standard_value>
37300

> <IC50_uM>
37.3

> <Activity>
No

> <Canonical_Smiles>
CC(O)(COc1ccc(F)cc1F)C(=O)Nc1ccc(C#N)c(C(F)(F)F)c1

$$$$

  SciTegic03142313312D

 30 31  0  0  0  0            999 V2000
    5.1937   -3.0093    0.0000 C   0  0
    3.8933   -3.7570    0.0000 C   0  0  3  0  0  0
    3.8962   -2.2570    0.0000 O   0  0
    2.5951   -3.0039    0.0000 C   0  0
    2.5973   -1.5031    0.0000 O   0  0
    1.2990   -0.7500    0.0000 C   0  0
    1.2990    0.7500    0.0000 C   0  0
    0.0000    1.5000    0.0000 C   0  0
   -1.2990    0.7500    0.0000 C   0  0
   -2.5988    1.5004    0.0000 C   0  0
   -2.5998    3.0004    0.0000 F   0  0
   -3.8976    0.7500    0.0000 F   0  0
   -3.8982    2.2498    0.0000 F   0  0
   -1.2990   -0.7500    0.0000 C   0  0
    0.0000   -1.5000    0.0000 N   0  0
    3.8912   -5.2578    0.0000 C   0  0
    2.5909   -6.0056    0.0000 O   0  0
    5.1894   -6.0109    0.0000 N   0  0
    5.1873   -7.5117    0.0000 C   0  0
    6.4837   -8.2663    0.0000 C   0  0
    6.4785   -9.7663    0.0000 C   0  0
    5.1769  -10.5118    0.0000 C   0  0
    5.1717  -12.0126    0.0000 C   0  0
    5.1665  -13.5126    0.0000 N   0  0
    3.8804   -9.7573    0.0000 C   0  0
    2.5781  -10.5032    0.0000 C   0  0
    2.5720  -12.0032    0.0000 F   0  0
    1.2819   -9.7483    0.0000 F   0  0
    1.2761  -11.2481    0.0000 F   0  0
    3.8856   -8.2573    0.0000 C   0  0
  2  1  1  4
  2  3  1  0
  2  4  1  0
  4  5  1  0
  5  6  1  0
  6  7  2  0
  7  8  1  0
  8  9  2  0
  9 10  1  0
 10 11  1  0
 10 12  1  0
 10 13  1  0
  9 14  1  0
 14 15  2  0
 15  6  1  0
  2 16  1  0
 16 17  2  0
 16 18  1  0
 18 19  1  0
 19 20  2  0
 20 21  1  0
 21 22  2  0
 22 23  1  0
 23 24  3  0
 22 25  1  0
 25 26  1  0
 26 27  1  0
 26 28  1  0
 26 29  1  0
 25 30  2  0
 30 19  1  0
M  END
> <assay_chembl_id>
CHEMBL4477865

> <assay_description>
Antiproliferative activity against human LNCAP cells after 96 hrs by propidium iodide staining based fluorescence 2D monolayer assay

> <document_journal>
Eur J Med Chem

> <molecule_chembl_id>
CHEMBL4593765

> <standard_value>
100000

> <IC50_uM>
100

> <Activity>
No

> <Canonical_Smiles>
CC(O)(COc1ccc(C(F)(F)F)cn1)C(=O)Nc1ccc(C#N)c(C(F)(F)F)c1

$$$$

  SciTegic03142313312D

 31 32  0  0  0  0            999 V2000
    5.2029   -2.9932    0.0000 C   0  0
    5.2003   -1.4932    0.0000 C   0  0  3  0  0  0
    3.9027   -2.2457    0.0000 O   0  0
    3.8990   -0.7455    0.0000 C   0  0
    2.6003   -1.4977    0.0000 O   0  0
    1.2990   -0.7500    0.0000 C   0  0
    1.2990    0.7500    0.0000 C   0  0
    0.0000    1.5000    0.0000 C   0  0
   -1.2990    0.7500    0.0000 C   0  0
   -1.2990   -0.7500    0.0000 C   0  0
    0.0000   -1.5000    0.0000 C   0  0
    0.0000   -3.0008    0.0000 C   0  0
   -1.2986   -3.7517    0.0000 F   0  0
    1.2993   -3.7504    0.0000 F   0  0
    0.0007   -4.5008    0.0000 F   0  0
    6.4990   -0.7409    0.0000 C   0  0
    6.4964    0.7591    0.0000 O   0  0
    7.8003   -1.4887    0.0000 N   0  0
    9.0990   -0.7364    0.0000 C   0  0
   10.4007   -1.4818    0.0000 C   0  0
   11.6971   -0.7274    0.0000 C   0  0
   11.6919    0.7726    0.0000 C   0  0
   12.9906    1.5249    0.0000 N   0  3
   14.2912    0.7775    0.0000 O   0  0
   12.9880    3.0249    0.0000 O   0  5
   10.3903    1.5181    0.0000 C   0  0
   10.3851    3.0190    0.0000 C   0  0
   11.6811    3.7743    0.0000 F   0  0
    9.0832    3.7640    0.0000 F   0  0
   10.3792    4.5189    0.0000 F   0  0
    9.0939    0.7636    0.0000 C   0  0
  2  1  1  4
  2  3  1  0
  2  4  1  0
  4  5  1  0
  5  6  1  0
  6  7  2  0
  7  8  1  0
  8  9  2  0
  9 10  1  0
 10 11  2  0
 11  6  1  0
 11 12  1  0
 12 13  1  0
 12 14  1  0
 12 15  1  0
  2 16  1  0
 16 17  2  0
 16 18  1  0
 18 19  1  0
 19 20  2  0
 20 21  1  0
 21 22  2  0
 22 23  1  0
 23 24  2  0
 23 25  1  0
 22 26  1  0
 26 27  1  0
 27 28  1  0
 27 29  1  0
 27 30  1  0
 26 31  2  0
 31 19  1  0
M  CHG  2  23   1  25  -1
M  END
> <assay_chembl_id>
CHEMBL4477865

> <assay_description>
Antiproliferative activity against human LNCAP cells after 96 hrs by propidium iodide staining based fluorescence 2D monolayer assay

> <document_journal>
Eur J Med Chem

> <molecule_chembl_id>
CHEMBL4482919

> <standard_value>
22600

> <IC50_uM>
22.6

> <Activity>
No

> <Canonical_Smiles>
CC(O)(COc1ccccc1C(F)(F)F)C(=O)Nc1ccc([N+](=O)[O-])c(C(F)(F)F)c1

$$$$

  SciTegic03142313312D

 31 32  0  0  0  0            999 V2000
    5.1937   -3.0093    0.0000 C   0  0
    3.8933   -3.7570    0.0000 C   0  0  3  0  0  0
    3.8962   -2.2570    0.0000 O   0  0
    2.5951   -3.0039    0.0000 C   0  0
    2.5973   -1.5031    0.0000 O   0  0
    1.2990   -0.7500    0.0000 C   0  0
    1.2990    0.7500    0.0000 C   0  0
    0.0000    1.5000    0.0000 C   0  0
   -1.2990    0.7500    0.0000 C   0  0
   -2.5988    1.5004    0.0000 C   0  0
   -2.5998    3.0004    0.0000 F   0  0
   -3.8976    0.7500    0.0000 F   0  0
   -3.8982    2.2498    0.0000 F   0  0
   -1.2990   -0.7500    0.0000 C   0  0
    0.0000   -1.5000    0.0000 N   0  0
    3.8912   -5.2578    0.0000 C   0  0
    2.5909   -6.0056    0.0000 O   0  0
    5.1894   -6.0109    0.0000 N   0  0
    5.1873   -7.5117    0.0000 C   0  0
    6.4837   -8.2663    0.0000 C   0  0
    6.4785   -9.7663    0.0000 C   0  0
    5.1769  -10.5118    0.0000 C   0  0
    5.1748  -12.0126    0.0000 N   0  3
    6.4723  -12.7653    0.0000 O   0  0
    3.8744  -12.7604    0.0000 O   0  5
    3.8804   -9.7573    0.0000 C   0  0
    2.5781  -10.5032    0.0000 C   0  0
    2.5720  -12.0032    0.0000 F   0  0
    1.2819   -9.7483    0.0000 F   0  0
    1.2761  -11.2481    0.0000 F   0  0
    3.8856   -8.2573    0.0000 C   0  0
  2  1  1  4
  2  3  1  0
  2  4  1  0
  4  5  1  0
  5  6  1  0
  6  7  2  0
  7  8  1  0
  8  9  2  0
  9 10  1  0
 10 11  1  0
 10 12  1  0
 10 13  1  0
  9 14  1  0
 14 15  2  0
 15  6  1  0
  2 16  1  0
 16 17  2  0
 16 18  1  0
 18 19  1  0
 19 20  2  0
 20 21  1  0
 21 22  2  0
 22 23  1  0
 23 24  2  0
 23 25  1  0
 22 26  1  0
 26 27  1  0
 27 28  1  0
 27 29  1  0
 27 30  1  0
 26 31  2  0
 31 19  1  0
M  CHG  2  23   1  25  -1
M  END
> <assay_chembl_id>
CHEMBL4477865

> <assay_description>
Antiproliferative activity against human LNCAP cells after 96 hrs by propidium iodide staining based fluorescence 2D monolayer assay

> <document_journal>
Eur J Med Chem

> <molecule_chembl_id>
CHEMBL4520829

> <standard_value>
36510

> <IC50_uM>
36.51

> <Activity>
No

> <Canonical_Smiles>
CC(O)(COc1ccc(C(F)(F)F)cn1)C(=O)Nc1ccc([N+](=O)[O-])c(C(F)(F)F)c1

$$$$

  SciTegic03142313312D

 30 31  0  0  0  0            999 V2000
    5.1937   -3.0093    0.0000 C   0  0
    3.8933   -3.7570    0.0000 C   0  0  3  0  0  0
    3.8962   -2.2570    0.0000 O   0  0
    2.5951   -3.0039    0.0000 C   0  0
    2.5973   -1.5031    0.0000 O   0  0
    1.2990   -0.7500    0.0000 C   0  0
    1.2990    0.7500    0.0000 C   0  0
    0.0000    1.5000    0.0000 C   0  0
   -1.2990    0.7500    0.0000 C   0  0
   -2.5988    1.5004    0.0000 C   0  0
   -2.5998    3.0004    0.0000 F   0  0
   -3.8976    0.7500    0.0000 F   0  0
   -3.8982    2.2498    0.0000 F   0  0
   -1.2990   -0.7500    0.0000 C   0  0
    0.0000   -1.5000    0.0000 C   0  0
    3.8912   -5.2578    0.0000 C   0  0
    2.5909   -6.0056    0.0000 O   0  0
    5.1894   -6.0109    0.0000 N   0  0
    5.1873   -7.5117    0.0000 C   0  0
    3.8856   -8.2573    0.0000 C   0  0
    3.8804   -9.7573    0.0000 C   0  0
    5.1769  -10.5118    0.0000 C   0  0
    5.1717  -12.0126    0.0000 C   0  0
    5.1665  -13.5126    0.0000 N   0  0
    6.4785   -9.7663    0.0000 C   0  0
    6.4837   -8.2663    0.0000 C   0  0
    7.7860   -7.5204    0.0000 C   0  0
    9.0829   -8.2741    0.0000 F   0  0
    7.7908   -6.0204    0.0000 F   0  0
    9.0873   -6.7743    0.0000 F   0  0
  2  1  1  4
  2  3  1  0
  2  4  1  0
  4  5  1  0
  5  6  1  0
  6  7  2  0
  7  8  1  0
  8  9  2  0
  9 10  1  0
 10 11  1  0
 10 12  1  0
 10 13  1  0
  9 14  1  0
 14 15  2  0
 15  6  1  0
  2 16  1  0
 16 17  2  0
 16 18  1  0
 18 19  1  0
 19 20  2  0
 20 21  1  0
 21 22  2  0
 22 23  1  0
 23 24  3  0
 22 25  1  0
 25 26  2  0
 26 19  1  0
 26 27  1  0
 27 28  1  0
 27 29  1  0
 27 30  1  0
M  END
> <assay_chembl_id>
CHEMBL4477865

> <assay_description>
Antiproliferative activity against human LNCAP cells after 96 hrs by propidium iodide staining based fluorescence 2D monolayer assay

> <document_journal>
Eur J Med Chem

> <molecule_chembl_id>
CHEMBL4582085

> <standard_value>
28610

> <IC50_uM>
28.61

> <Activity>
No

> <Canonical_Smiles>
CC(O)(COc1ccc(C(F)(F)F)cc1)C(=O)Nc1ccc(C#N)cc1C(F)(F)F

$$$$

  SciTegic03142313312D

 28 29  0  0  0  0            999 V2000
    5.1937   -3.0093    0.0000 C   0  0
    3.8933   -3.7570    0.0000 C   0  0  3  0  0  0
    3.8962   -2.2570    0.0000 O   0  0
    2.5951   -3.0039    0.0000 C   0  0
    2.5973   -1.5031    0.0000 O   0  0
    1.2990   -0.7500    0.0000 C   0  0
    1.2990    0.7500    0.0000 C   0  0
    0.0000    1.5000    0.0000 C   0  0
   -1.2990    0.7500    0.0000 C   0  0
   -2.5988    1.5004    0.0000 C   0  0
   -3.8978    2.2504    0.0000 N   0  0
   -1.2990   -0.7500    0.0000 C   0  0
    0.0000   -1.5000    0.0000 C   0  0
    3.8912   -5.2578    0.0000 C   0  0
    2.5909   -6.0056    0.0000 O   0  0
    5.1894   -6.0109    0.0000 N   0  0
    5.1873   -7.5117    0.0000 C   0  0
    3.8856   -8.2573    0.0000 C   0  0
    3.8804   -9.7573    0.0000 C   0  0
    5.1769  -10.5118    0.0000 C   0  0
    5.1717  -12.0126    0.0000 C   0  0
    5.1665  -13.5126    0.0000 N   0  0
    6.4785   -9.7663    0.0000 C   0  0
    6.4837   -8.2663    0.0000 C   0  0
    7.7860   -7.5204    0.0000 C   0  0
    9.0829   -8.2741    0.0000 F   0  0
    7.7908   -6.0204    0.0000 F   0  0
    9.0873   -6.7743    0.0000 F   0  0
  2  1  1  4
  2  3  1  0
  2  4  1  0
  4  5  1  0
  5  6  1  0
  6  7  2  0
  7  8  1  0
  8  9  2  0
  9 10  1  0
 10 11  3  0
  9 12  1  0
 12 13  2  0
 13  6  1  0
  2 14  1  0
 14 15  2  0
 14 16  1  0
 16 17  1  0
 17 18  2  0
 18 19  1  0
 19 20  2  0
 20 21  1  0
 21 22  3  0
 20 23  1  0
 23 24  2  0
 24 17  1  0
 24 25  1  0
 25 26  1  0
 25 27  1  0
 25 28  1  0
M  END
> <assay_chembl_id>
CHEMBL4477865

> <assay_description>
Antiproliferative activity against human LNCAP cells after 96 hrs by propidium iodide staining based fluorescence 2D monolayer assay

> <document_journal>
Eur J Med Chem

> <molecule_chembl_id>
CHEMBL4578937

> <standard_value>
34722

> <IC50_uM>
34.722

> <Activity>
No

> <Canonical_Smiles>
CC(O)(COc1ccc(C#N)cc1)C(=O)Nc1ccc(C#N)cc1C(F)(F)F

$$$$

  SciTegic03142313312D

 28 29  0  0  0  0            999 V2000
    5.1937   -3.0093    0.0000 C   0  0
    3.8933   -3.7570    0.0000 C   0  0  3  0  0  0
    3.8962   -2.2570    0.0000 O   0  0
    2.5951   -3.0039    0.0000 C   0  0
    2.5973   -1.5031    0.0000 O   0  0
    1.2990   -0.7500    0.0000 C   0  0
    1.2990    0.7500    0.0000 C   0  0
    0.0000    1.5000    0.0000 C   0  0
   -1.2990    0.7500    0.0000 C   0  0
   -2.5981    1.5000    0.0000 F   0  0
   -1.2990   -0.7500    0.0000 C   0  0
   -2.5981   -1.5000    0.0000 F   0  0
    0.0000   -1.5000    0.0000 C   0  0
    3.8912   -5.2578    0.0000 C   0  0
    2.5909   -6.0056    0.0000 O   0  0
    5.1894   -6.0109    0.0000 N   0  0
    5.1873   -7.5117    0.0000 C   0  0
    3.8856   -8.2573    0.0000 C   0  0
    3.8804   -9.7573    0.0000 C   0  0
    5.1769  -10.5118    0.0000 C   0  0
    5.1717  -12.0126    0.0000 C   0  0
    5.1665  -13.5126    0.0000 N   0  0
    6.4785   -9.7663    0.0000 C   0  0
    6.4837   -8.2663    0.0000 C   0  0
    7.7860   -7.5204    0.0000 C   0  0
    9.0829   -8.2741    0.0000 F   0  0
    7.7908   -6.0204    0.0000 F   0  0
    9.0873   -6.7743    0.0000 F   0  0
  2  1  1  4
  2  3  1  0
  2  4  1  0
  4  5  1  0
  5  6  1  0
  6  7  2  0
  7  8  1  0
  8  9  2  0
  9 10  1  0
  9 11  1  0
 11 12  1  0
 11 13  2  0
 13  6  1  0
  2 14  1  0
 14 15  2  0
 14 16  1  0
 16 17  1  0
 17 18  2  0
 18 19  1  0
 19 20  2  0
 20 21  1  0
 21 22  3  0
 20 23  1  0
 23 24  2  0
 24 17  1  0
 24 25  1  0
 25 26  1  0
 25 27  1  0
 25 28  1  0
M  END
> <assay_chembl_id>
CHEMBL4477865

> <assay_description>
Antiproliferative activity against human LNCAP cells after 96 hrs by propidium iodide staining based fluorescence 2D monolayer assay

> <document_journal>
Eur J Med Chem

> <molecule_chembl_id>
CHEMBL4583013

> <standard_value>
34800

> <IC50_uM>
34.8

> <Activity>
No

> <Canonical_Smiles>
CC(O)(COc1ccc(F)c(F)c1)C(=O)Nc1ccc(C#N)cc1C(F)(F)F

$$$$

  SciTegic03142313312D

 28 29  0  0  0  0            999 V2000
    5.2029   -2.9932    0.0000 C   0  0
    5.2003   -1.4932    0.0000 C   0  0  3  0  0  0
    3.9027   -2.2457    0.0000 O   0  0
    3.8990   -0.7455    0.0000 C   0  0
    2.6003   -1.4977    0.0000 O   0  0
    1.2990   -0.7500    0.0000 C   0  0
    1.2990    0.7500    0.0000 C   0  0
    0.0000    1.5000    0.0000 C   0  0
   -1.2990    0.7500    0.0000 C   0  0
   -2.5981    1.5000    0.0000 F   0  0
   -1.2990   -0.7500    0.0000 C   0  0
    0.0000   -1.5000    0.0000 C   0  0
    0.0000   -3.0000    0.0000 F   0  0
    6.4990   -0.7409    0.0000 C   0  0
    6.4964    0.7591    0.0000 O   0  0
    7.8003   -1.4887    0.0000 N   0  0
    9.0990   -0.7364    0.0000 C   0  0
    9.0939    0.7637    0.0000 C   0  0
   10.3903    1.5181    0.0000 C   0  0
   11.6919    0.7726    0.0000 C   0  0
   12.9891    1.5275    0.0000 C   0  0
   14.2855    2.2820    0.0000 N   0  0
   11.6971   -0.7274    0.0000 C   0  0
   10.4007   -1.4818    0.0000 C   0  0
   10.4059   -2.9827    0.0000 C   0  0
   11.7071   -3.7289    0.0000 F   0  0
    9.1093   -3.7368    0.0000 F   0  0
   10.4104   -4.4827    0.0000 F   0  0
  2  1  1  4
  2  3  1  0
  2  4  1  0
  4  5  1  0
  5  6  1  0
  6  7  2  0
  7  8  1  0
  8  9  2  0
  9 10  1  0
  9 11  1  0
 11 12  2  0
 12  6  1  0
 12 13  1  0
  2 14  1  0
 14 15  2  0
 14 16  1  0
 16 17  1  0
 17 18  2  0
 18 19  1  0
 19 20  2  0
 20 21  1  0
 21 22  3  0
 20 23  1  0
 23 24  2  0
 24 17  1  0
 24 25  1  0
 25 26  1  0
 25 27  1  0
 25 28  1  0
M  END
> <assay_chembl_id>
CHEMBL4477865

> <assay_description>
Antiproliferative activity against human LNCAP cells after 96 hrs by propidium iodide staining based fluorescence 2D monolayer assay

> <document_journal>
Eur J Med Chem

> <molecule_chembl_id>
CHEMBL4579902

> <standard_value>
30640

> <IC50_uM>
30.64

> <Activity>
No

> <Canonical_Smiles>
CC(O)(COc1ccc(F)cc1F)C(=O)Nc1ccc(C#N)cc1C(F)(F)F

$$$$

  SciTegic03142313312D

 31 32  0  0  0  0            999 V2000
    5.1937   -3.0093    0.0000 C   0  0
    3.8933   -3.7570    0.0000 C   0  0  3  0  0  0
    3.8962   -2.2570    0.0000 O   0  0
    2.5951   -3.0039    0.0000 C   0  0
    2.5973   -1.5031    0.0000 O   0  0
    1.2990   -0.7500    0.0000 C   0  0
    1.2990    0.7500    0.0000 C   0  0
    0.0000    1.5000    0.0000 C   0  0
   -1.2990    0.7500    0.0000 C   0  0
   -2.6003    1.4977    0.0000 O   0  0
   -3.8990    0.7455    0.0000 C   0  0
   -5.1996    1.4928    0.0000 F   0  0
   -3.8964   -0.7545    0.0000 F   0  0
   -5.1966   -0.0070    0.0000 F   0  0
   -1.2990   -0.7500    0.0000 C   0  0
    0.0000   -1.5000    0.0000 C   0  0
    3.8912   -5.2578    0.0000 C   0  0
    2.5909   -6.0056    0.0000 O   0  0
    5.1894   -6.0109    0.0000 N   0  0
    5.1873   -7.5117    0.0000 C   0  0
    3.8856   -8.2573    0.0000 C   0  0
    3.8804   -9.7573    0.0000 C   0  0
    5.1769  -10.5118    0.0000 C   0  0
    5.1717  -12.0126    0.0000 C   0  0
    5.1665  -13.5126    0.0000 N   0  0
    6.4785   -9.7663    0.0000 C   0  0
    6.4837   -8.2663    0.0000 C   0  0
    7.7860   -7.5204    0.0000 C   0  0
    9.0829   -8.2741    0.0000 F   0  0
    7.7908   -6.0204    0.0000 F   0  0
    9.0873   -6.7743    0.0000 F   0  0
  2  1  1  4
  2  3  1  0
  2  4  1  0
  4  5  1  0
  5  6  1  0
  6  7  2  0
  7  8  1  0
  8  9  2  0
  9 10  1  0
 10 11  1  0
 11 12  1  0
 11 13  1  0
 11 14  1  0
  9 15  1  0
 15 16  2  0
 16  6  1  0
  2 17  1  0
 17 18  2  0
 17 19  1  0
 19 20  1  0
 20 21  2  0
 21 22  1  0
 22 23  2  0
 23 24  1  0
 24 25  3  0
 23 26  1  0
 26 27  2  0
 27 20  1  0
 27 28  1  0
 28 29  1  0
 28 30  1  0
 28 31  1  0
M  END
> <assay_chembl_id>
CHEMBL4477865

> <assay_description>
Antiproliferative activity against human LNCAP cells after 96 hrs by propidium iodide staining based fluorescence 2D monolayer assay

> <document_journal>
Eur J Med Chem

> <molecule_chembl_id>
CHEMBL4560812

> <standard_value>
27650

> <IC50_uM>
27.65

> <Activity>
No

> <Canonical_Smiles>
CC(O)(COc1ccc(OC(F)(F)F)cc1)C(=O)Nc1ccc(C#N)cc1C(F)(F)F

$$$$

  SciTegic03142313312D

 31 32  0  0  0  0            999 V2000
    5.1937   -3.0093    0.0000 C   0  0
    3.8933   -3.7570    0.0000 C   0  0  3  0  0  0
    3.8962   -2.2570    0.0000 O   0  0
    2.5951   -3.0039    0.0000 C   0  0
    2.5973   -1.5031    0.0000 O   0  0
    1.2990   -0.7500    0.0000 C   0  0
    1.2990    0.7500    0.0000 C   0  0
    0.0000    1.5000    0.0000 C   0  0
   -1.2990    0.7500    0.0000 C   0  0
   -1.2990   -0.7500    0.0000 C   0  0
   -2.5972   -1.5031    0.0000 O   0  0
   -2.5951   -3.0039    0.0000 C   0  0
   -3.8926   -3.7566    0.0000 F   0  0
   -1.2948   -3.7517    0.0000 F   0  0
   -2.5923   -4.5039    0.0000 F   0  0
    0.0000   -1.5000    0.0000 C   0  0
    3.8912   -5.2578    0.0000 C   0  0
    2.5909   -6.0056    0.0000 O   0  0
    5.1894   -6.0109    0.0000 N   0  0
    5.1873   -7.5117    0.0000 C   0  0
    3.8856   -8.2573    0.0000 C   0  0
    3.8804   -9.7573    0.0000 C   0  0
    5.1769  -10.5118    0.0000 C   0  0
    5.1717  -12.0126    0.0000 C   0  0
    5.1665  -13.5126    0.0000 N   0  0
    6.4785   -9.7663    0.0000 C   0  0
    6.4837   -8.2663    0.0000 C   0  0
    7.7860   -7.5204    0.0000 C   0  0
    9.0829   -8.2741    0.0000 F   0  0
    7.7908   -6.0204    0.0000 F   0  0
    9.0873   -6.7743    0.0000 F   0  0
  2  1  1  4
  2  3  1  0
  2  4  1  0
  4  5  1  0
  5  6  1  0
  6  7  2  0
  7  8  1  0
  8  9  2  0
  9 10  1  0
 10 11  1  0
 11 12  1  0
 12 13  1  0
 12 14  1  0
 12 15  1  0
 10 16  2  0
 16  6  1  0
  2 17  1  0
 17 18  2  0
 17 19  1  0
 19 20  1  0
 20 21  2  0
 21 22  1  0
 22 23  2  0
 23 24  1  0
 24 25  3  0
 23 26  1  0
 26 27  2  0
 27 20  1  0
 27 28  1  0
 28 29  1  0
 28 30  1  0
 28 31  1  0
M  END
> <assay_chembl_id>
CHEMBL4477865

> <assay_description>
Antiproliferative activity against human LNCAP cells after 96 hrs by propidium iodide staining based fluorescence 2D monolayer assay

> <document_journal>
Eur J Med Chem

> <molecule_chembl_id>
CHEMBL4553533

> <standard_value>
63390

> <IC50_uM>
63.39

> <Activity>
No

> <Canonical_Smiles>
CC(O)(COc1cccc(OC(F)(F)F)c1)C(=O)Nc1ccc(C#N)cc1C(F)(F)F

$$$$

  SciTegic03142313312D

 31 32  0  0  0  0            999 V2000
    5.2029   -2.9932    0.0000 C   0  0
    5.2003   -1.4932    0.0000 C   0  0  3  0  0  0
    3.9027   -2.2457    0.0000 O   0  0
    3.8990   -0.7455    0.0000 C   0  0
    2.6003   -1.4977    0.0000 O   0  0
    1.2990   -0.7500    0.0000 C   0  0
    1.2990    0.7500    0.0000 C   0  0
    0.0000    1.5000    0.0000 C   0  0
   -1.2990    0.7500    0.0000 C   0  0
   -1.2990   -0.7500    0.0000 C   0  0
    0.0000   -1.5000    0.0000 C   0  0
   -0.0031   -3.0008    0.0000 O   0  0
   -1.3039   -3.7494    0.0000 C   0  0
   -1.3070   -5.2494    0.0000 F   0  0
   -2.6016   -2.9971    0.0000 F   0  0
   -2.6044   -4.4969    0.0000 F   0  0
    6.4990   -0.7409    0.0000 C   0  0
    6.4964    0.7591    0.0000 O   0  0
    7.8003   -1.4887    0.0000 N   0  0
    9.0990   -0.7364    0.0000 C   0  0
    9.0939    0.7637    0.0000 C   0  0
   10.3903    1.5181    0.0000 C   0  0
   11.6919    0.7726    0.0000 C   0  0
   12.9891    1.5275    0.0000 C   0  0
   14.2855    2.2820    0.0000 N   0  0
   11.6971   -0.7274    0.0000 C   0  0
   10.4007   -1.4818    0.0000 C   0  0
   10.4059   -2.9827    0.0000 C   0  0
   11.7071   -3.7289    0.0000 F   0  0
    9.1093   -3.7368    0.0000 F   0  0
   10.4104   -4.4827    0.0000 F   0  0
  2  1  1  4
  2  3  1  0
  2  4  1  0
  4  5  1  0
  5  6  1  0
  6  7  2  0
  7  8  1  0
  8  9  2  0
  9 10  1  0
 10 11  2  0
 11  6  1  0
 11 12  1  0
 12 13  1  0
 13 14  1  0
 13 15  1  0
 13 16  1  0
  2 17  1  0
 17 18  2  0
 17 19  1  0
 19 20  1  0
 20 21  2  0
 21 22  1  0
 22 23  2  0
 23 24  1  0
 24 25  3  0
 23 26  1  0
 26 27  2  0
 27 20  1  0
 27 28  1  0
 28 29  1  0
 28 30  1  0
 28 31  1  0
M  END
> <assay_chembl_id>
CHEMBL4477865

> <assay_description>
Antiproliferative activity against human LNCAP cells after 96 hrs by propidium iodide staining based fluorescence 2D monolayer assay

> <document_journal>
Eur J Med Chem

> <molecule_chembl_id>
CHEMBL4566286

> <standard_value>
33830

> <IC50_uM>
33.83

> <Activity>
No

> <Canonical_Smiles>
CC(O)(COc1ccccc1OC(F)(F)F)C(=O)Nc1ccc(C#N)cc1C(F)(F)F

$$$$

  SciTegic03142313312D

 29 30  0  0  0  0            999 V2000
    5.1937   -3.0093    0.0000 C   0  0
    3.8933   -3.7570    0.0000 C   0  0  3  0  0  0
    3.8962   -2.2570    0.0000 O   0  0
    2.5951   -3.0039    0.0000 C   0  0
    2.5973   -1.5031    0.0000 O   0  0
    1.2990   -0.7500    0.0000 C   0  0
    1.2990    0.7500    0.0000 C   0  0
    0.0000    1.5000    0.0000 C   0  0
   -1.2990    0.7500    0.0000 C   0  0
   -2.5988    1.5004    0.0000 C   0  0
   -3.8978    2.2504    0.0000 N   0  0
   -1.2990   -0.7500    0.0000 C   0  0
   -2.5981   -1.5000    0.0000 F   0  0
    0.0000   -1.5000    0.0000 C   0  0
    3.8912   -5.2578    0.0000 C   0  0
    2.5909   -6.0056    0.0000 O   0  0
    5.1894   -6.0109    0.0000 N   0  0
    5.1873   -7.5117    0.0000 C   0  0
    3.8856   -8.2573    0.0000 C   0  0
    3.8804   -9.7573    0.0000 C   0  0
    5.1769  -10.5118    0.0000 C   0  0
    5.1717  -12.0126    0.0000 C   0  0
    5.1665  -13.5126    0.0000 N   0  0
    6.4785   -9.7663    0.0000 C   0  0
    6.4837   -8.2663    0.0000 C   0  0
    7.7860   -7.5204    0.0000 C   0  0
    9.0829   -8.2741    0.0000 F   0  0
    7.7908   -6.0204    0.0000 F   0  0
    9.0873   -6.7743    0.0000 F   0  0
  2  1  1  4
  2  3  1  0
  2  4  1  0
  4  5  1  0
  5  6  1  0
  6  7  2  0
  7  8  1  0
  8  9  2  0
  9 10  1  0
 10 11  3  0
  9 12  1  0
 12 13  1  0
 12 14  2  0
 14  6  1  0
  2 15  1  0
 15 16  2  0
 15 17  1  0
 17 18  1  0
 18 19  2  0
 19 20  1  0
 20 21  2  0
 21 22  1  0
 22 23  3  0
 21 24  1  0
 24 25  2  0
 25 18  1  0
 25 26  1  0
 26 27  1  0
 26 28  1  0
 26 29  1  0
M  END
> <assay_chembl_id>
CHEMBL4477865

> <assay_description>
Antiproliferative activity against human LNCAP cells after 96 hrs by propidium iodide staining based fluorescence 2D monolayer assay

> <document_journal>
Eur J Med Chem

> <molecule_chembl_id>
CHEMBL4545276

> <standard_value>
78270

> <IC50_uM>
78.27

> <Activity>
No

> <Canonical_Smiles>
CC(O)(COc1ccc(C#N)c(F)c1)C(=O)Nc1ccc(C#N)cc1C(F)(F)F

$$$$

  SciTegic03142313312D

 30 31  0  0  0  0            999 V2000
    5.1937   -3.0093    0.0000 C   0  0
    3.8933   -3.7570    0.0000 C   0  0  3  0  0  0
    3.8962   -2.2570    0.0000 O   0  0
    2.5951   -3.0039    0.0000 C   0  0
    2.5973   -1.5031    0.0000 O   0  0
    1.2990   -0.7500    0.0000 C   0  0
    1.2990    0.7500    0.0000 C   0  0
    0.0000    1.5000    0.0000 C   0  0
   -1.2990    0.7500    0.0000 C   0  0
   -2.5988    1.5004    0.0000 C   0  0
   -2.5998    3.0004    0.0000 F   0  0
   -3.8976    0.7500    0.0000 F   0  0
   -3.8982    2.2498    0.0000 F   0  0
   -1.2990   -0.7500    0.0000 C   0  0
    0.0000   -1.5000    0.0000 N   0  0
    3.8912   -5.2578    0.0000 C   0  0
    2.5909   -6.0056    0.0000 O   0  0
    5.1894   -6.0109    0.0000 N   0  0
    5.1873   -7.5117    0.0000 C   0  0
    3.8856   -8.2573    0.0000 C   0  0
    3.8804   -9.7573    0.0000 C   0  0
    5.1769  -10.5118    0.0000 C   0  0
    5.1717  -12.0126    0.0000 C   0  0
    5.1665  -13.5126    0.0000 N   0  0
    6.4785   -9.7663    0.0000 C   0  0
    6.4837   -8.2663    0.0000 C   0  0
    7.7860   -7.5204    0.0000 C   0  0
    9.0829   -8.2741    0.0000 F   0  0
    7.7908   -6.0204    0.0000 F   0  0
    9.0873   -6.7743    0.0000 F   0  0
  2  1  1  4
  2  3  1  0
  2  4  1  0
  4  5  1  0
  5  6  1  0
  6  7  2  0
  7  8  1  0
  8  9  2  0
  9 10  1  0
 10 11  1  0
 10 12  1  0
 10 13  1  0
  9 14  1  0
 14 15  2  0
 15  6  1  0
  2 16  1  0
 16 17  2  0
 16 18  1  0
 18 19  1  0
 19 20  2  0
 20 21  1  0
 21 22  2  0
 22 23  1  0
 23 24  3  0
 22 25  1  0
 25 26  2  0
 26 19  1  0
 26 27  1  0
 27 28  1  0
 27 29  1  0
 27 30  1  0
M  END
> <assay_chembl_id>
CHEMBL4477865

> <assay_description>
Antiproliferative activity against human LNCAP cells after 96 hrs by propidium iodide staining based fluorescence 2D monolayer assay

> <document_journal>
Eur J Med Chem

> <molecule_chembl_id>
CHEMBL4518330

> <standard_value>
100000

> <IC50_uM>
100

> <Activity>
No

> <Canonical_Smiles>
CC(O)(COc1ccc(C(F)(F)F)cn1)C(=O)Nc1ccc(C#N)cc1C(F)(F)F

$$$$

  SciTegic03142313312D

 32 33  0  0  0  0            999 V2000
    5.1983   -3.0012    0.0000 C   0  0
    5.1988   -1.5012    0.0000 C   0  0  3  0  0  0
    4.3327   -2.0011    0.0000 O   0  0
    3.8990   -0.7508    0.0000 C   0  0
    2.5988   -1.5004    0.0000 S   0  0
    2.5983   -3.0004    0.0000 O   0  0
    3.4646   -2.0008    0.0000 O   0  0
    1.2990   -0.7500    0.0000 C   0  0
    1.2990    0.7500    0.0000 C   0  0
    0.0000    1.5000    0.0000 C   0  0
   -1.2990    0.7500    0.0000 C   0  0
   -2.5988    1.5004    0.0000 C   0  0
   -2.5998    3.0004    0.0000 F   0  0
   -3.8976    0.7500    0.0000 F   0  0
   -3.8982    2.2498    0.0000 F   0  0
   -1.2990   -0.7500    0.0000 C   0  0
    0.0000   -1.5000    0.0000 C   0  0
    6.4990   -0.7516    0.0000 C   0  0
    6.4995    0.7484    0.0000 O   0  0
    7.7988   -1.5020    0.0000 N   0  0
    9.0990   -0.7525    0.0000 C   0  0
   10.3991   -1.5006    0.0000 C   0  0
   11.6971   -0.7487    0.0000 C   0  0
   11.6950    0.7512    0.0000 C   0  0
   12.9937    1.5035    0.0000 C   0  0
   14.2917    2.2553    0.0000 N   0  0
   10.3949    1.4994    0.0000 C   0  0
   10.3928    3.0003    0.0000 C   0  0
   11.6903    3.7529    0.0000 F   0  0
    9.0925    3.7480    0.0000 F   0  0
   10.3900    4.5002    0.0000 F   0  0
    9.0969    0.7476    0.0000 C   0  0
  2  1  1  4
  2  3  1  0
  2  4  1  0
  4  5  1  0
  5  6  2  0
  5  7  2  0
  5  8  1  0
  8  9  2  0
  9 10  1  0
 10 11  2  0
 11 12  1  0
 12 13  1  0
 12 14  1  0
 12 15  1  0
 11 16  1  0
 16 17  2  0
 17  8  1  0
  2 18  1  0
 18 19  2  0
 18 20  1  0
 20 21  1  0
 21 22  2  0
 22 23  1  0
 23 24  2  0
 24 25  1  0
 25 26  3  0
 24 27  1  0
 27 28  1  0
 28 29  1  0
 28 30  1  0
 28 31  1  0
 27 32  2  0
 32 21  1  0
M  END
> <assay_chembl_id>
CHEMBL4477865

> <assay_description>
Antiproliferative activity against human LNCAP cells after 96 hrs by propidium iodide staining based fluorescence 2D monolayer assay

> <document_journal>
Eur J Med Chem

> <molecule_chembl_id>
CHEMBL4552713

> <standard_value>
20050

> <IC50_uM>
20.05

> <Activity>
No

> <Canonical_Smiles>
CC(O)(CS(=O)(=O)c1ccc(C(F)(F)F)cc1)C(=O)Nc1ccc(C#N)c(C(F)(F)F)c1

$$$$

  SciTegic03142313312D

 32 33  0  0  0  0            999 V2000
    5.1983   -3.0012    0.0000 C   0  0
    5.1988   -1.5012    0.0000 C   0  0  3  0  0  0
    4.3327   -2.0011    0.0000 O   0  0
    3.8990   -0.7508    0.0000 C   0  0
    2.5988   -1.5004    0.0000 S   0  0
    2.5983   -3.0004    0.0000 O   0  0
    3.4646   -2.0008    0.0000 O   0  0
    1.2990   -0.7500    0.0000 C   0  0
    1.2990    0.7500    0.0000 C   0  0
    0.0000    1.5000    0.0000 C   0  0
   -1.2990    0.7500    0.0000 C   0  0
   -1.2990   -0.7500    0.0000 C   0  0
    0.0000   -1.5000    0.0000 C   0  0
    0.0000   -3.0008    0.0000 C   0  0
   -1.2986   -3.7517    0.0000 F   0  0
    1.2993   -3.7504    0.0000 F   0  0
    0.0007   -4.5008    0.0000 F   0  0
    6.4990   -0.7516    0.0000 C   0  0
    6.4995    0.7484    0.0000 O   0  0
    7.7988   -1.5020    0.0000 N   0  0
    9.0990   -0.7525    0.0000 C   0  0
   10.3991   -1.5006    0.0000 C   0  0
   11.6971   -0.7487    0.0000 C   0  0
   11.6950    0.7512    0.0000 C   0  0
   12.9937    1.5035    0.0000 C   0  0
   14.2917    2.2553    0.0000 N   0  0
   10.3949    1.4994    0.0000 C   0  0
   10.3928    3.0003    0.0000 C   0  0
   11.6903    3.7529    0.0000 F   0  0
    9.0925    3.7480    0.0000 F   0  0
   10.3900    4.5002    0.0000 F   0  0
    9.0969    0.7476    0.0000 C   0  0
  2  1  1  4
  2  3  1  0
  2  4  1  0
  4  5  1  0
  5  6  2  0
  5  7  2  0
  5  8  1  0
  8  9  2  0
  9 10  1  0
 10 11  2  0
 11 12  1  0
 12 13  2  0
 13  8  1  0
 13 14  1  0
 14 15  1  0
 14 16  1  0
 14 17  1  0
  2 18  1  0
 18 19  2  0
 18 20  1  0
 20 21  1  0
 21 22  2  0
 22 23  1  0
 23 24  2  0
 24 25  1  0
 25 26  3  0
 24 27  1  0
 27 28  1  0
 28 29  1  0
 28 30  1  0
 28 31  1  0
 27 32  2  0
 32 21  1  0
M  END
> <assay_chembl_id>
CHEMBL4477865

> <assay_description>
Antiproliferative activity against human LNCAP cells after 96 hrs by propidium iodide staining based fluorescence 2D monolayer assay

> <document_journal>
Eur J Med Chem

> <molecule_chembl_id>
CHEMBL4543957

> <standard_value>
42740

> <IC50_uM>
42.74

> <Activity>
No

> <Canonical_Smiles>
CC(O)(CS(=O)(=O)c1ccccc1C(F)(F)F)C(=O)Nc1ccc(C#N)c(C(F)(F)F)c1

$$$$

  SciTegic03142313312D

 33 34  0  0  0  0            999 V2000
    5.1983   -3.0012    0.0000 C   0  0
    5.1988   -1.5012    0.0000 C   0  0  3  0  0  0
    4.3327   -2.0011    0.0000 O   0  0
    3.8990   -0.7508    0.0000 C   0  0
    2.5988   -1.5004    0.0000 S   0  0
    2.5983   -3.0004    0.0000 O   0  0
    3.4646   -2.0008    0.0000 O   0  0
    1.2990   -0.7500    0.0000 C   0  0
    1.2990    0.7500    0.0000 C   0  0
    0.0000    1.5000    0.0000 C   0  0
   -1.2990    0.7500    0.0000 C   0  0
   -2.6003    1.4977    0.0000 O   0  0
   -3.8990    0.7455    0.0000 C   0  0
   -5.1996    1.4928    0.0000 F   0  0
   -3.8964   -0.7545    0.0000 F   0  0
   -5.1966   -0.0070    0.0000 F   0  0
   -1.2990   -0.7500    0.0000 C   0  0
    0.0000   -1.5000    0.0000 C   0  0
    6.4990   -0.7516    0.0000 C   0  0
    6.4995    0.7484    0.0000 O   0  0
    7.7988   -1.5020    0.0000 N   0  0
    9.0990   -0.7525    0.0000 C   0  0
   10.3991   -1.5006    0.0000 C   0  0
   11.6971   -0.7487    0.0000 C   0  0
   11.6950    0.7512    0.0000 C   0  0
   12.9937    1.5035    0.0000 C   0  0
   14.2917    2.2553    0.0000 N   0  0
   10.3949    1.4994    0.0000 C   0  0
   10.3928    3.0003    0.0000 C   0  0
   11.6903    3.7529    0.0000 F   0  0
    9.0925    3.7480    0.0000 F   0  0
   10.3900    4.5002    0.0000 F   0  0
    9.0969    0.7476    0.0000 C   0  0
  2  1  1  4
  2  3  1  0
  2  4  1  0
  4  5  1  0
  5  6  2  0
  5  7  2  0
  5  8  1  0
  8  9  2  0
  9 10  1  0
 10 11  2  0
 11 12  1  0
 12 13  1  0
 13 14  1  0
 13 15  1  0
 13 16  1  0
 11 17  1  0
 17 18  2  0
 18  8  1  0
  2 19  1  0
 19 20  2  0
 19 21  1  0
 21 22  1  0
 22 23  2  0
 23 24  1  0
 24 25  2  0
 25 26  1  0
 26 27  3  0
 25 28  1  0
 28 29  1  0
 29 30  1  0
 29 31  1  0
 29 32  1  0
 28 33  2  0
 33 22  1  0
M  END
> <assay_chembl_id>
CHEMBL4477865

> <assay_description>
Antiproliferative activity against human LNCAP cells after 96 hrs by propidium iodide staining based fluorescence 2D monolayer assay

> <document_journal>
Eur J Med Chem

> <molecule_chembl_id>
CHEMBL4530734

> <standard_value>
31640

> <IC50_uM>
31.64

> <Activity>
No

> <Canonical_Smiles>
CC(O)(CS(=O)(=O)c1ccc(OC(F)(F)F)cc1)C(=O)Nc1ccc(C#N)c(C(F)(F)F)c1

$$$$

  SciTegic03142313312D

 32 33  0  0  0  0            999 V2000
    5.1983   -3.0012    0.0000 C   0  0
    5.1988   -1.5012    0.0000 C   0  0  3  0  0  0
    4.3327   -2.0011    0.0000 O   0  0
    3.8990   -0.7508    0.0000 C   0  0
    2.5988   -1.5004    0.0000 S   0  0
    2.5983   -3.0004    0.0000 O   0  0
    3.4646   -2.0008    0.0000 O   0  0
    1.2990   -0.7500    0.0000 C   0  0
    1.2990    0.7500    0.0000 C   0  0
    0.0000    1.5000    0.0000 C   0  0
   -1.2990    0.7500    0.0000 C   0  0
   -2.5988    1.5004    0.0000 C   0  0
   -2.5998    3.0004    0.0000 F   0  0
   -3.8976    0.7500    0.0000 F   0  0
   -3.8982    2.2498    0.0000 F   0  0
   -1.2990   -0.7500    0.0000 C   0  0
    0.0000   -1.5000    0.0000 N   0  0
    6.4990   -0.7516    0.0000 C   0  0
    6.4995    0.7484    0.0000 O   0  0
    7.7988   -1.5020    0.0000 N   0  0
    9.0990   -0.7525    0.0000 C   0  0
   10.3991   -1.5006    0.0000 C   0  0
   11.6971   -0.7487    0.0000 C   0  0
   11.6950    0.7512    0.0000 C   0  0
   12.9937    1.5035    0.0000 C   0  0
   14.2917    2.2553    0.0000 N   0  0
   10.3949    1.4994    0.0000 C   0  0
   10.3928    3.0003    0.0000 C   0  0
   11.6903    3.7529    0.0000 F   0  0
    9.0925    3.7480    0.0000 F   0  0
   10.3900    4.5002    0.0000 F   0  0
    9.0969    0.7476    0.0000 C   0  0
  2  1  1  4
  2  3  1  0
  2  4  1  0
  4  5  1  0
  5  6  2  0
  5  7  2  0
  5  8  1  0
  8  9  2  0
  9 10  1  0
 10 11  2  0
 11 12  1  0
 12 13  1  0
 12 14  1  0
 12 15  1  0
 11 16  1  0
 16 17  2  0
 17  8  1  0
  2 18  1  0
 18 19  2  0
 18 20  1  0
 20 21  1  0
 21 22  2  0
 22 23  1  0
 23 24  2  0
 24 25  1  0
 25 26  3  0
 24 27  1  0
 27 28  1  0
 28 29  1  0
 28 30  1  0
 28 31  1  0
 27 32  2  0
 32 21  1  0
M  END
> <assay_chembl_id>
CHEMBL4477865

> <assay_description>
Antiproliferative activity against human LNCAP cells after 96 hrs by propidium iodide staining based fluorescence 2D monolayer assay

> <document_journal>
Eur J Med Chem

> <molecule_chembl_id>
CHEMBL4551595

> <standard_value>
100000

> <IC50_uM>
100

> <Activity>
No

> <Canonical_Smiles>
CC(O)(CS(=O)(=O)c1ccc(C(F)(F)F)cn1)C(=O)Nc1ccc(C#N)c(C(F)(F)F)c1

$$$$

  SciTegic03142313312D

 33 34  0  0  0  0            999 V2000
    5.1983   -3.0012    0.0000 C   0  0
    5.1988   -1.5012    0.0000 C   0  0  3  0  0  0
    4.3327   -2.0011    0.0000 O   0  0
    3.8990   -0.7508    0.0000 C   0  0
    2.5988   -1.5004    0.0000 S   0  0
    2.5983   -3.0004    0.0000 O   0  0
    3.4646   -2.0008    0.0000 O   0  0
    1.2990   -0.7500    0.0000 C   0  0
    1.2990    0.7500    0.0000 C   0  0
    0.0000    1.5000    0.0000 C   0  0
   -1.2990    0.7500    0.0000 C   0  0
   -1.2990   -0.7500    0.0000 C   0  0
    0.0000   -1.5000    0.0000 C   0  0
    0.0000   -3.0008    0.0000 C   0  0
   -1.2986   -3.7517    0.0000 F   0  0
    1.2993   -3.7504    0.0000 F   0  0
    0.0007   -4.5008    0.0000 F   0  0
    6.4990   -0.7516    0.0000 C   0  0
    6.4995    0.7484    0.0000 O   0  0
    7.7988   -1.5020    0.0000 N   0  0
    9.0990   -0.7525    0.0000 C   0  0
   10.3991   -1.5006    0.0000 C   0  0
   11.6971   -0.7487    0.0000 C   0  0
   11.6950    0.7512    0.0000 C   0  0
   12.9953    1.5008    0.0000 N   0  3
   14.2943    0.7508    0.0000 O   0  0
   12.9958    3.0008    0.0000 O   0  5
   10.3949    1.4994    0.0000 C   0  0
   10.3928    3.0003    0.0000 C   0  0
   11.6903    3.7529    0.0000 F   0  0
    9.0925    3.7480    0.0000 F   0  0
   10.3900    4.5002    0.0000 F   0  0
    9.0969    0.7476    0.0000 C   0  0
  2  1  1  4
  2  3  1  0
  2  4  1  0
  4  5  1  0
  5  6  2  0
  5  7  2  0
  5  8  1  0
  8  9  2  0
  9 10  1  0
 10 11  2  0
 11 12  1  0
 12 13  2  0
 13  8  1  0
 13 14  1  0
 14 15  1  0
 14 16  1  0
 14 17  1  0
  2 18  1  0
 18 19  2  0
 18 20  1  0
 20 21  1  0
 21 22  2  0
 22 23  1  0
 23 24  2  0
 24 25  1  0
 25 26  2  0
 25 27  1  0
 24 28  1  0
 28 29  1  0
 29 30  1  0
 29 31  1  0
 29 32  1  0
 28 33  2  0
 33 21  1  0
M  CHG  2  25   1  27  -1
M  END
> <assay_chembl_id>
CHEMBL4477865

> <assay_description>
Antiproliferative activity against human LNCAP cells after 96 hrs by propidium iodide staining based fluorescence 2D monolayer assay

> <document_journal>
Eur J Med Chem

> <molecule_chembl_id>
CHEMBL4537113

> <standard_value>
25700

> <IC50_uM>
25.7

> <Activity>
No

> <Canonical_Smiles>
CC(O)(CS(=O)(=O)c1ccccc1C(F)(F)F)C(=O)Nc1ccc([N+](=O)[O-])c(C(F)(F)F)c1

$$$$

  SciTegic03142313312D

 29 30  0  0  0  0            999 V2000
    5.1983   -3.0012    0.0000 C   0  0
    5.1988   -1.5012    0.0000 C   0  0  3  0  0  0
    4.3327   -2.0011    0.0000 O   0  0
    3.8990   -0.7508    0.0000 C   0  0
    2.5988   -1.5004    0.0000 S   0  0
    2.5983   -3.0004    0.0000 O   0  0
    3.4646   -2.0008    0.0000 O   0  0
    1.2990   -0.7500    0.0000 C   0  0
    1.2990    0.7500    0.0000 C   0  0
    0.0000    1.5000    0.0000 C   0  0
   -1.2990    0.7500    0.0000 C   0  0
   -2.5981    1.5000    0.0000 F   0  0
   -1.2990   -0.7500    0.0000 C   0  0
    0.0000   -1.5000    0.0000 C   0  0
    6.4990   -0.7516    0.0000 C   0  0
    6.4995    0.7484    0.0000 O   0  0
    7.7988   -1.5020    0.0000 N   0  0
    9.0990   -0.7525    0.0000 C   0  0
    9.0969    0.7476    0.0000 C   0  0
   10.3949    1.4994    0.0000 C   0  0
   11.6950    0.7512    0.0000 C   0  0
   12.9937    1.5035    0.0000 C   0  0
   14.2917    2.2553    0.0000 N   0  0
   11.6971   -0.7488    0.0000 C   0  0
   10.3991   -1.5006    0.0000 C   0  0
   10.4013   -3.0014    0.0000 C   0  0
   11.7009   -3.7504    0.0000 F   0  0
    9.1031   -3.7528    0.0000 F   0  0
   10.4027   -4.5014    0.0000 F   0  0
  2  1  1  4
  2  3  1  0
  2  4  1  0
  4  5  1  0
  5  6  2  0
  5  7  2  0
  5  8  1  0
  8  9  2  0
  9 10  1  0
 10 11  2  0
 11 12  1  0
 11 13  1  0
 13 14  2  0
 14  8  1  0
  2 15  1  0
 15 16  2  0
 15 17  1  0
 17 18  1  0
 18 19  2  0
 19 20  1  0
 20 21  2  0
 21 22  1  0
 22 23  3  0
 21 24  1  0
 24 25  2  0
 25 18  1  0
 25 26  1  0
 26 27  1  0
 26 28  1  0
 26 29  1  0
M  END
> <assay_chembl_id>
CHEMBL4477865

> <assay_description>
Antiproliferative activity against human LNCAP cells after 96 hrs by propidium iodide staining based fluorescence 2D monolayer assay

> <document_journal>
Eur J Med Chem

> <molecule_chembl_id>
CHEMBL4581759

> <standard_value>
91590

> <IC50_uM>
91.59

> <Activity>
No

> <Canonical_Smiles>
CC(O)(CS(=O)(=O)c1ccc(F)cc1)C(=O)Nc1ccc(C#N)cc1C(F)(F)F

$$$$

  SciTegic03142313312D

 32 33  0  0  0  0            999 V2000
    5.1983   -3.0012    0.0000 C   0  0
    5.1988   -1.5012    0.0000 C   0  0  3  0  0  0
    4.3327   -2.0011    0.0000 O   0  0
    3.8990   -0.7508    0.0000 C   0  0
    2.5988   -1.5004    0.0000 S   0  0
    2.5983   -3.0004    0.0000 O   0  0
    3.4646   -2.0008    0.0000 O   0  0
    1.2990   -0.7500    0.0000 C   0  0
    1.2990    0.7500    0.0000 C   0  0
    0.0000    1.5000    0.0000 C   0  0
   -1.2990    0.7500    0.0000 C   0  0
   -2.5988    1.5004    0.0000 C   0  0
   -2.5998    3.0004    0.0000 F   0  0
   -3.8976    0.7500    0.0000 F   0  0
   -3.8982    2.2498    0.0000 F   0  0
   -1.2990   -0.7500    0.0000 C   0  0
    0.0000   -1.5000    0.0000 C   0  0
    6.4990   -0.7516    0.0000 C   0  0
    6.4995    0.7484    0.0000 O   0  0
    7.7988   -1.5020    0.0000 N   0  0
    9.0990   -0.7525    0.0000 C   0  0
    9.0969    0.7476    0.0000 C   0  0
   10.3949    1.4994    0.0000 C   0  0
   11.6950    0.7512    0.0000 C   0  0
   12.9937    1.5035    0.0000 C   0  0
   14.2917    2.2553    0.0000 N   0  0
   11.6971   -0.7488    0.0000 C   0  0
   10.3991   -1.5006    0.0000 C   0  0
   10.4013   -3.0014    0.0000 C   0  0
   11.7009   -3.7504    0.0000 F   0  0
    9.1031   -3.7528    0.0000 F   0  0
   10.4027   -4.5014    0.0000 F   0  0
  2  1  1  4
  2  3  1  0
  2  4  1  0
  4  5  1  0
  5  6  2  0
  5  7  2  0
  5  8  1  0
  8  9  2  0
  9 10  1  0
 10 11  2  0
 11 12  1  0
 12 13  1  0
 12 14  1  0
 12 15  1  0
 11 16  1  0
 16 17  2  0
 17  8  1  0
  2 18  1  0
 18 19  2  0
 18 20  1  0
 20 21  1  0
 21 22  2  0
 22 23  1  0
 23 24  2  0
 24 25  1  0
 25 26  3  0
 24 27  1  0
 27 28  2  0
 28 21  1  0
 28 29  1  0
 29 30  1  0
 29 31  1  0
 29 32  1  0
M  END
> <assay_chembl_id>
CHEMBL4477865

> <assay_description>
Antiproliferative activity against human LNCAP cells after 96 hrs by propidium iodide staining based fluorescence 2D monolayer assay

> <document_journal>
Eur J Med Chem

> <molecule_chembl_id>
CHEMBL4575675

> <standard_value>
32930

> <IC50_uM>
32.93

> <Activity>
No

> <Canonical_Smiles>
CC(O)(CS(=O)(=O)c1ccc(C(F)(F)F)cc1)C(=O)Nc1ccc(C#N)cc1C(F)(F)F

$$$$

  SciTegic03142313312D

 32 33  0  0  0  0            999 V2000
    5.1983   -3.0012    0.0000 C   0  0
    5.1988   -1.5012    0.0000 C   0  0  3  0  0  0
    4.3327   -2.0011    0.0000 O   0  0
    3.8990   -0.7508    0.0000 C   0  0
    2.5988   -1.5004    0.0000 S   0  0
    2.5983   -3.0004    0.0000 O   0  0
    3.4646   -2.0008    0.0000 O   0  0
    1.2990   -0.7500    0.0000 C   0  0
    1.2990    0.7500    0.0000 C   0  0
    0.0000    1.5000    0.0000 C   0  0
   -1.2990    0.7500    0.0000 C   0  0
   -1.2990   -0.7500    0.0000 C   0  0
   -2.5988   -1.5004    0.0000 C   0  0
   -3.8983   -0.7513    0.0000 F   0  0
   -2.5983   -3.0004    0.0000 F   0  0
   -3.8975   -2.2510    0.0000 F   0  0
    0.0000   -1.5000    0.0000 C   0  0
    6.4990   -0.7516    0.0000 C   0  0
    6.4995    0.7484    0.0000 O   0  0
    7.7988   -1.5020    0.0000 N   0  0
    9.0990   -0.7525    0.0000 C   0  0
    9.0969    0.7476    0.0000 C   0  0
   10.3949    1.4994    0.0000 C   0  0
   11.6950    0.7512    0.0000 C   0  0
   12.9937    1.5035    0.0000 C   0  0
   14.2917    2.2553    0.0000 N   0  0
   11.6971   -0.7488    0.0000 C   0  0
   10.3991   -1.5006    0.0000 C   0  0
   10.4013   -3.0014    0.0000 C   0  0
   11.7009   -3.7504    0.0000 F   0  0
    9.1031   -3.7528    0.0000 F   0  0
   10.4027   -4.5014    0.0000 F   0  0
  2  1  1  4
  2  3  1  0
  2  4  1  0
  4  5  1  0
  5  6  2  0
  5  7  2  0
  5  8  1  0
  8  9  2  0
  9 10  1  0
 10 11  2  0
 11 12  1  0
 12 13  1  0
 13 14  1  0
 13 15  1  0
 13 16  1  0
 12 17  2  0
 17  8  1  0
  2 18  1  0
 18 19  2  0
 18 20  1  0
 20 21  1  0
 21 22  2  0
 22 23  1  0
 23 24  2  0
 24 25  1  0
 25 26  3  0
 24 27  1  0
 27 28  2  0
 28 21  1  0
 28 29  1  0
 29 30  1  0
 29 31  1  0
 29 32  1  0
M  END
> <assay_chembl_id>
CHEMBL4477865

> <assay_description>
Antiproliferative activity against human LNCAP cells after 96 hrs by propidium iodide staining based fluorescence 2D monolayer assay

> <document_journal>
Eur J Med Chem

> <molecule_chembl_id>
CHEMBL4521349

> <standard_value>
32080

> <IC50_uM>
32.08

> <Activity>
No

> <Canonical_Smiles>
CC(O)(CS(=O)(=O)c1cccc(C(F)(F)F)c1)C(=O)Nc1ccc(C#N)cc1C(F)(F)F

$$$$

  SciTegic03142313312D

 32 33  0  0  0  0            999 V2000
    5.1983   -3.0012    0.0000 C   0  0
    5.1988   -1.5012    0.0000 C   0  0  3  0  0  0
    4.3327   -2.0011    0.0000 O   0  0
    3.8990   -0.7508    0.0000 C   0  0
    2.5988   -1.5004    0.0000 S   0  0
    2.5983   -3.0004    0.0000 O   0  0
    3.4646   -2.0008    0.0000 O   0  0
    1.2990   -0.7500    0.0000 C   0  0
    1.2990    0.7500    0.0000 C   0  0
    0.0000    1.5000    0.0000 C   0  0
   -1.2990    0.7500    0.0000 C   0  0
   -1.2990   -0.7500    0.0000 C   0  0
    0.0000   -1.5000    0.0000 C   0  0
    0.0000   -3.0008    0.0000 C   0  0
   -1.2986   -3.7517    0.0000 F   0  0
    1.2993   -3.7504    0.0000 F   0  0
    0.0007   -4.5008    0.0000 F   0  0
    6.4990   -0.7516    0.0000 C   0  0
    6.4995    0.7484    0.0000 O   0  0
    7.7988   -1.5020    0.0000 N   0  0
    9.0990   -0.7525    0.0000 C   0  0
    9.0969    0.7476    0.0000 C   0  0
   10.3949    1.4994    0.0000 C   0  0
   11.6950    0.7512    0.0000 C   0  0
   12.9937    1.5035    0.0000 C   0  0
   14.2917    2.2553    0.0000 N   0  0
   11.6971   -0.7488    0.0000 C   0  0
   10.3991   -1.5006    0.0000 C   0  0
   10.4013   -3.0014    0.0000 C   0  0
   11.7009   -3.7504    0.0000 F   0  0
    9.1031   -3.7528    0.0000 F   0  0
   10.4027   -4.5014    0.0000 F   0  0
  2  1  1  4
  2  3  1  0
  2  4  1  0
  4  5  1  0
  5  6  2  0
  5  7  2  0
  5  8  1  0
  8  9  2  0
  9 10  1  0
 10 11  2  0
 11 12  1  0
 12 13  2  0
 13  8  1  0
 13 14  1  0
 14 15  1  0
 14 16  1  0
 14 17  1  0
  2 18  1  0
 18 19  2  0
 18 20  1  0
 20 21  1  0
 21 22  2  0
 22 23  1  0
 23 24  2  0
 24 25  1  0
 25 26  3  0
 24 27  1  0
 27 28  2  0
 28 21  1  0
 28 29  1  0
 29 30  1  0
 29 31  1  0
 29 32  1  0
M  END
> <assay_chembl_id>
CHEMBL4477865

> <assay_description>
Antiproliferative activity against human LNCAP cells after 96 hrs by propidium iodide staining based fluorescence 2D monolayer assay

> <document_journal>
Eur J Med Chem

> <molecule_chembl_id>
CHEMBL4576047

> <standard_value>
74020

> <IC50_uM>
74.02

> <Activity>
No

> <Canonical_Smiles>
CC(O)(CS(=O)(=O)c1ccccc1C(F)(F)F)C(=O)Nc1ccc(C#N)cc1C(F)(F)F

$$$$

  SciTegic03142313312D

 30 31  0  0  0  0            999 V2000
    5.1983   -3.0012    0.0000 C   0  0
    5.1988   -1.5012    0.0000 C   0  0  3  0  0  0
    4.3327   -2.0011    0.0000 O   0  0
    3.8990   -0.7508    0.0000 C   0  0
    2.5988   -1.5004    0.0000 S   0  0
    2.5983   -3.0004    0.0000 O   0  0
    3.4646   -2.0008    0.0000 O   0  0
    1.2990   -0.7500    0.0000 C   0  0
    1.2990    0.7500    0.0000 C   0  0
    0.0000    1.5000    0.0000 C   0  0
   -1.2990    0.7500    0.0000 C   0  0
   -2.5981    1.5000    0.0000 F   0  0
   -1.2990   -0.7500    0.0000 C   0  0
    0.0000   -1.5000    0.0000 C   0  0
    6.4990   -0.7516    0.0000 C   0  0
    6.4995    0.7484    0.0000 O   0  0
    7.7988   -1.5020    0.0000 N   0  0
    9.0990   -0.7525    0.0000 C   0  0
    9.0969    0.7476    0.0000 C   0  0
   10.3949    1.4994    0.0000 C   0  0
   11.6950    0.7512    0.0000 C   0  0
   12.9953    1.5008    0.0000 N   0  3
   14.2943    0.7508    0.0000 O   0  0
   12.9958    3.0008    0.0000 O   0  5
   11.6971   -0.7488    0.0000 C   0  0
   10.3991   -1.5006    0.0000 C   0  0
   10.4013   -3.0014    0.0000 C   0  0
   11.7009   -3.7504    0.0000 F   0  0
    9.1031   -3.7528    0.0000 F   0  0
   10.4027   -4.5014    0.0000 F   0  0
  2  1  1  4
  2  3  1  0
  2  4  1  0
  4  5  1  0
  5  6  2  0
  5  7  2  0
  5  8  1  0
  8  9  2  0
  9 10  1  0
 10 11  2  0
 11 12  1  0
 11 13  1  0
 13 14  2  0
 14  8  1  0
  2 15  1  0
 15 16  2  0
 15 17  1  0
 17 18  1  0
 18 19  2  0
 19 20  1  0
 20 21  2  0
 21 22  1  0
 22 23  2  0
 22 24  1  0
 21 25  1  0
 25 26  2  0
 26 18  1  0
 26 27  1  0
 27 28  1  0
 27 29  1  0
 27 30  1  0
M  CHG  2  22   1  24  -1
M  END
> <assay_chembl_id>
CHEMBL4477865

> <assay_description>
Antiproliferative activity against human LNCAP cells after 96 hrs by propidium iodide staining based fluorescence 2D monolayer assay

> <document_journal>
Eur J Med Chem

> <molecule_chembl_id>
CHEMBL4574383

> <standard_value>
38650

> <IC50_uM>
38.65

> <Activity>
No

> <Canonical_Smiles>
CC(O)(CS(=O)(=O)c1ccc(F)cc1)C(=O)Nc1ccc([N+](=O)[O-])cc1C(F)(F)F

$$$$

  SciTegic03142313312D

 33 34  0  0  0  0            999 V2000
    5.1983   -3.0012    0.0000 C   0  0
    5.1988   -1.5012    0.0000 C   0  0  3  0  0  0
    4.3327   -2.0011    0.0000 O   0  0
    3.8990   -0.7508    0.0000 C   0  0
    2.5988   -1.5004    0.0000 S   0  0
    2.5983   -3.0004    0.0000 O   0  0
    3.4646   -2.0008    0.0000 O   0  0
    1.2990   -0.7500    0.0000 C   0  0
    1.2990    0.7500    0.0000 C   0  0
    0.0000    1.5000    0.0000 C   0  0
   -1.2990    0.7500    0.0000 C   0  0
   -2.5988    1.5004    0.0000 C   0  0
   -2.5998    3.0004    0.0000 F   0  0
   -3.8976    0.7500    0.0000 F   0  0
   -3.8982    2.2498    0.0000 F   0  0
   -1.2990   -0.7500    0.0000 C   0  0
    0.0000   -1.5000    0.0000 C   0  0
    6.4990   -0.7516    0.0000 C   0  0
    6.4995    0.7484    0.0000 O   0  0
    7.7988   -1.5020    0.0000 N   0  0
    9.0990   -0.7525    0.0000 C   0  0
    9.0969    0.7476    0.0000 C   0  0
   10.3949    1.4994    0.0000 C   0  0
   11.6950    0.7512    0.0000 C   0  0
   12.9953    1.5008    0.0000 N   0  3
   14.2943    0.7508    0.0000 O   0  0
   12.9958    3.0008    0.0000 O   0  5
   11.6971   -0.7488    0.0000 C   0  0
   10.3991   -1.5006    0.0000 C   0  0
   10.4013   -3.0014    0.0000 C   0  0
   11.7009   -3.7504    0.0000 F   0  0
    9.1031   -3.7528    0.0000 F   0  0
   10.4027   -4.5014    0.0000 F   0  0
  2  1  1  4
  2  3  1  0
  2  4  1  0
  4  5  1  0
  5  6  2  0
  5  7  2  0
  5  8  1  0
  8  9  2  0
  9 10  1  0
 10 11  2  0
 11 12  1  0
 12 13  1  0
 12 14  1  0
 12 15  1  0
 11 16  1  0
 16 17  2  0
 17  8  1  0
  2 18  1  0
 18 19  2  0
 18 20  1  0
 20 21  1  0
 21 22  2  0
 22 23  1  0
 23 24  2  0
 24 25  1  0
 25 26  2  0
 25 27  1  0
 24 28  1  0
 28 29  2  0
 29 21  1  0
 29 30  1  0
 30 31  1  0
 30 32  1  0
 30 33  1  0
M  CHG  2  25   1  27  -1
M  END
> <assay_chembl_id>
CHEMBL4477865

> <assay_description>
Antiproliferative activity against human LNCAP cells after 96 hrs by propidium iodide staining based fluorescence 2D monolayer assay

> <document_journal>
Eur J Med Chem

> <molecule_chembl_id>
CHEMBL4580927

> <standard_value>
29300

> <IC50_uM>
29.3

> <Activity>
No

> <Canonical_Smiles>
CC(O)(CS(=O)(=O)c1ccc(C(F)(F)F)cc1)C(=O)Nc1ccc([N+](=O)[O-])cc1C(F)(F)F

$$$$

  SciTegic03142313312D

 33 34  0  0  0  0            999 V2000
    5.1983   -3.0012    0.0000 C   0  0
    5.1988   -1.5012    0.0000 C   0  0  3  0  0  0
    4.3327   -2.0011    0.0000 O   0  0
    3.8990   -0.7508    0.0000 C   0  0
    2.5988   -1.5004    0.0000 S   0  0
    2.5983   -3.0004    0.0000 O   0  0
    3.4646   -2.0008    0.0000 O   0  0
    1.2990   -0.7500    0.0000 C   0  0
    1.2990    0.7500    0.0000 C   0  0
    0.0000    1.5000    0.0000 C   0  0
   -1.2990    0.7500    0.0000 C   0  0
   -1.2990   -0.7500    0.0000 C   0  0
    0.0000   -1.5000    0.0000 C   0  0
    0.0000   -3.0008    0.0000 C   0  0
   -1.2986   -3.7517    0.0000 F   0  0
    1.2993   -3.7504    0.0000 F   0  0
    0.0007   -4.5008    0.0000 F   0  0
    6.4990   -0.7516    0.0000 C   0  0
    6.4995    0.7484    0.0000 O   0  0
    7.7988   -1.5020    0.0000 N   0  0
    9.0990   -0.7525    0.0000 C   0  0
    9.0969    0.7476    0.0000 C   0  0
   10.3949    1.4994    0.0000 C   0  0
   11.6950    0.7512    0.0000 C   0  0
   12.9953    1.5008    0.0000 N   0  3
   14.2943    0.7508    0.0000 O   0  0
   12.9958    3.0008    0.0000 O   0  5
   11.6971   -0.7488    0.0000 C   0  0
   10.3991   -1.5006    0.0000 C   0  0
   10.4013   -3.0014    0.0000 C   0  0
   11.7009   -3.7504    0.0000 F   0  0
    9.1031   -3.7528    0.0000 F   0  0
   10.4027   -4.5014    0.0000 F   0  0
  2  1  1  4
  2  3  1  0
  2  4  1  0
  4  5  1  0
  5  6  2  0
  5  7  2  0
  5  8  1  0
  8  9  2  0
  9 10  1  0
 10 11  2  0
 11 12  1  0
 12 13  2  0
 13  8  1  0
 13 14  1  0
 14 15  1  0
 14 16  1  0
 14 17  1  0
  2 18  1  0
 18 19  2  0
 18 20  1  0
 20 21  1  0
 21 22  2  0
 22 23  1  0
 23 24  2  0
 24 25  1  0
 25 26  2  0
 25 27  1  0
 24 28  1  0
 28 29  2  0
 29 21  1  0
 29 30  1  0
 30 31  1  0
 30 32  1  0
 30 33  1  0
M  CHG  2  25   1  27  -1
M  END
> <assay_chembl_id>
CHEMBL4477865

> <assay_description>
Antiproliferative activity against human LNCAP cells after 96 hrs by propidium iodide staining based fluorescence 2D monolayer assay

> <document_journal>
Eur J Med Chem

> <molecule_chembl_id>
CHEMBL4516905

> <standard_value>
20460

> <IC50_uM>
20.46

> <Activity>
No

> <Canonical_Smiles>
CC(O)(CS(=O)(=O)c1ccccc1C(F)(F)F)C(=O)Nc1ccc([N+](=O)[O-])cc1C(F)(F)F

$$$$

  SciTegic03142313312D

 33 34  0  0  0  0            999 V2000
    5.1983   -3.0012    0.0000 C   0  0
    5.1988   -1.5012    0.0000 C   0  0  3  0  0  0
    4.3327   -2.0011    0.0000 O   0  0
    3.8990   -0.7508    0.0000 C   0  0
    2.5988   -1.5004    0.0000 S   0  0
    2.5983   -3.0004    0.0000 O   0  0
    3.4646   -2.0008    0.0000 O   0  0
    1.2990   -0.7500    0.0000 C   0  0
    1.2990    0.7500    0.0000 C   0  0
    0.0000    1.5000    0.0000 C   0  0
   -1.2990    0.7500    0.0000 C   0  0
   -2.5988    1.5004    0.0000 C   0  0
   -2.5998    3.0004    0.0000 F   0  0
   -3.8976    0.7500    0.0000 F   0  0
   -3.8982    2.2498    0.0000 F   0  0
   -1.2990   -0.7500    0.0000 C   0  0
    0.0000   -1.5000    0.0000 N   0  0
    6.4990   -0.7516    0.0000 C   0  0
    6.4995    0.7484    0.0000 O   0  0
    7.7988   -1.5020    0.0000 N   0  0
    9.0990   -0.7525    0.0000 C   0  0
    9.0969    0.7476    0.0000 C   0  0
   10.3949    1.4994    0.0000 C   0  0
   11.6950    0.7512    0.0000 C   0  0
   12.9953    1.5008    0.0000 N   0  3
   14.2943    0.7508    0.0000 O   0  0
   12.9958    3.0008    0.0000 O   0  5
   11.6971   -0.7488    0.0000 C   0  0
   10.3991   -1.5006    0.0000 C   0  0
   10.4013   -3.0014    0.0000 C   0  0
   11.7009   -3.7504    0.0000 F   0  0
    9.1031   -3.7528    0.0000 F   0  0
   10.4027   -4.5014    0.0000 F   0  0
  2  1  1  4
  2  3  1  0
  2  4  1  0
  4  5  1  0
  5  6  2  0
  5  7  2  0
  5  8  1  0
  8  9  2  0
  9 10  1  0
 10 11  2  0
 11 12  1  0
 12 13  1  0
 12 14  1  0
 12 15  1  0
 11 16  1  0
 16 17  2  0
 17  8  1  0
  2 18  1  0
 18 19  2  0
 18 20  1  0
 20 21  1  0
 21 22  2  0
 22 23  1  0
 23 24  2  0
 24 25  1  0
 25 26  2  0
 25 27  1  0
 24 28  1  0
 28 29  2  0
 29 21  1  0
 29 30  1  0
 30 31  1  0
 30 32  1  0
 30 33  1  0
M  CHG  2  25   1  27  -1
M  END
> <assay_chembl_id>
CHEMBL4477865

> <assay_description>
Antiproliferative activity against human LNCAP cells after 96 hrs by propidium iodide staining based fluorescence 2D monolayer assay

> <document_journal>
Eur J Med Chem

> <molecule_chembl_id>
CHEMBL4537876

> <standard_value>
100000

> <IC50_uM>
100

> <Activity>
No

> <Canonical_Smiles>
CC(O)(CS(=O)(=O)c1ccc(C(F)(F)F)cn1)C(=O)Nc1ccc([N+](=O)[O-])cc1C(F)(F)F

$$$$

  SciTegic03142313312D

 33 34  0  0  0  0            999 V2000
    5.1983   -3.0012    0.0000 C   0  0
    5.1988   -1.5012    0.0000 C   0  0  3  0  0  0
    4.3327   -2.0011    0.0000 O   0  0
    3.8990   -0.7508    0.0000 C   0  0
    2.5988   -1.5004    0.0000 S   0  0
    2.5983   -3.0004    0.0000 O   0  0
    3.4646   -2.0008    0.0000 O   0  0
    1.2990   -0.7500    0.0000 C   0  0
    1.2990    0.7500    0.0000 C   0  0
    0.0000    1.5000    0.0000 C   0  0
    0.0000    3.0008    0.0000 C   0  0
    1.2985    3.7517    0.0000 F   0  0
   -1.2993    3.7504    0.0000 F   0  0
   -0.0007    4.5008    0.0000 F   0  0
   -1.2990    0.7500    0.0000 C   0  0
   -1.2990   -0.7500    0.0000 C   0  0
    0.0000   -1.5000    0.0000 N   0  0
    6.4990   -0.7516    0.0000 C   0  0
    6.4995    0.7484    0.0000 O   0  0
    7.7988   -1.5020    0.0000 N   0  0
    9.0990   -0.7525    0.0000 C   0  0
    9.0969    0.7476    0.0000 C   0  0
   10.3949    1.4994    0.0000 C   0  0
   11.6950    0.7512    0.0000 C   0  0
   12.9953    1.5008    0.0000 N   0  3
   14.2943    0.7508    0.0000 O   0  0
   12.9958    3.0008    0.0000 O   0  5
   11.6971   -0.7488    0.0000 C   0  0
   10.3991   -1.5006    0.0000 C   0  0
   10.4013   -3.0014    0.0000 C   0  0
   11.7009   -3.7504    0.0000 F   0  0
    9.1031   -3.7528    0.0000 F   0  0
   10.4027   -4.5014    0.0000 F   0  0
  2  1  1  4
  2  3  1  0
  2  4  1  0
  4  5  1  0
  5  6  2  0
  5  7  2  0
  5  8  1  0
  8  9  2  0
  9 10  1  0
 10 11  1  0
 11 12  1  0
 11 13  1  0
 11 14  1  0
 10 15  2  0
 15 16  1  0
 16 17  2  0
 17  8  1  0
  2 18  1  0
 18 19  2  0
 18 20  1  0
 20 21  1  0
 21 22  2  0
 22 23  1  0
 23 24  2  0
 24 25  1  0
 25 26  2  0
 25 27  1  0
 24 28  1  0
 28 29  2  0
 29 21  1  0
 29 30  1  0
 30 31  1  0
 30 32  1  0
 30 33  1  0
M  CHG  2  25   1  27  -1
M  END
> <assay_chembl_id>
CHEMBL4477865

> <assay_description>
Antiproliferative activity against human LNCAP cells after 96 hrs by propidium iodide staining based fluorescence 2D monolayer assay

> <document_journal>
Eur J Med Chem

> <molecule_chembl_id>
CHEMBL4566975

> <standard_value>
45030

> <IC50_uM>
45.03

> <Activity>
No

> <Canonical_Smiles>
CC(O)(CS(=O)(=O)c1cc(C(F)(F)F)ccn1)C(=O)Nc1ccc([N+](=O)[O-])cc1C(F)(F)F

$$$$

  SciTegic03142313312D

 28 29  0  0  1  0            999 V2000
    5.2029   -2.9932    0.0000 C   0  0
    5.2003   -1.4932    0.0000 C   0  0  2  0  0  0
    5.1977    0.0068    0.0000 O   0  0
    3.8990   -0.7455    0.0000 C   0  0
    2.6003   -1.4977    0.0000 S   0  0
    1.2990   -0.7500    0.0000 C   0  0
    1.2990    0.7500    0.0000 C   0  0
    0.0000    1.5000    0.0000 C   0  0
   -1.2990    0.7500    0.0000 C   0  0
   -2.5981    1.5000    0.0000 F   0  0
   -1.2990   -0.7500    0.0000 C   0  0
    0.0000   -1.5000    0.0000 C   0  0
    0.0000   -3.0000    0.0000 F   0  0
    6.4990   -0.7409    0.0000 C   0  0
    6.4964    0.7591    0.0000 O   0  0
    7.8003   -1.4887    0.0000 N   0  0
    9.0990   -0.7364    0.0000 C   0  0
   10.4007   -1.4818    0.0000 C   0  0
   11.6971   -0.7274    0.0000 C   0  0
   11.6919    0.7726    0.0000 C   0  0
   12.9891    1.5275    0.0000 C   0  0
   14.2855    2.2820    0.0000 N   0  0
   10.3903    1.5181    0.0000 C   0  0
   10.3851    3.0190    0.0000 C   0  0
   11.6811    3.7743    0.0000 F   0  0
    9.0832    3.7640    0.0000 F   0  0
   10.3792    4.5189    0.0000 F   0  0
    9.0939    0.7636    0.0000 C   0  0
  2  1  1  1
  2  3  1  0
  2  4  1  0
  4  5  1  0
  5  6  1  0
  6  7  2  0
  7  8  1  0
  8  9  2  0
  9 10  1  0
  9 11  1  0
 11 12  2  0
 12  6  1  0
 12 13  1  0
  2 14  1  0
 14 15  2  0
 14 16  1  0
 16 17  1  0
 17 18  2  0
 18 19  1  0
 19 20  2  0
 20 21  1  0
 21 22  3  0
 20 23  1  0
 23 24  1  0
 24 25  1  0
 24 26  1  0
 24 27  1  0
 23 28  2  0
 28 17  1  0
M  END
> <assay_chembl_id>
CHEMBL4477865

> <assay_description>
Antiproliferative activity against human LNCAP cells after 96 hrs by propidium iodide staining based fluorescence 2D monolayer assay

> <document_journal>
Eur J Med Chem

> <molecule_chembl_id>
CHEMBL4559439

> <standard_value>
25190

> <IC50_uM>
25.19

> <Activity>
No

> <Canonical_Smiles>
C[C@](O)(CSc1ccc(F)cc1F)C(=O)Nc1ccc(C#N)c(C(F)(F)F)c1

$$$$

  SciTegic03142313312D

 28 29  0  0  1  0            999 V2000
    5.1937   -3.0093    0.0000 C   0  0
    3.8933   -3.7570    0.0000 C   0  0  2  0  0  0
    2.5930   -4.5047    0.0000 O   0  0
    2.5951   -3.0039    0.0000 C   0  0
    2.5973   -1.5031    0.0000 O   0  0
    1.2990   -0.7500    0.0000 C   0  0
    1.2990    0.7500    0.0000 C   0  0
    0.0000    1.5000    0.0000 C   0  0
   -1.2990    0.7500    0.0000 C   0  0
   -2.5988    1.5004    0.0000 C   0  0
   -3.8978    2.2504    0.0000 N   0  0
   -1.2990   -0.7500    0.0000 C   0  0
    0.0000   -1.5000    0.0000 C   0  0
    3.8912   -5.2578    0.0000 C   0  0
    2.5909   -6.0056    0.0000 O   0  0
    5.1894   -6.0109    0.0000 N   0  0
    5.1873   -7.5117    0.0000 C   0  0
    6.4837   -8.2663    0.0000 C   0  0
    6.4785   -9.7663    0.0000 C   0  0
    5.1769  -10.5118    0.0000 C   0  0
    5.1717  -12.0126    0.0000 C   0  0
    5.1665  -13.5126    0.0000 N   0  0
    3.8804   -9.7573    0.0000 C   0  0
    2.5781  -10.5032    0.0000 C   0  0
    2.5720  -12.0032    0.0000 F   0  0
    1.2819   -9.7483    0.0000 F   0  0
    1.2761  -11.2481    0.0000 F   0  0
    3.8856   -8.2573    0.0000 C   0  0
  2  1  1  6
  2  3  1  0
  2  4  1  0
  4  5  1  0
  5  6  1  0
  6  7  2  0
  7  8  1  0
  8  9  2  0
  9 10  1  0
 10 11  3  0
  9 12  1  0
 12 13  2  0
 13  6  1  0
  2 14  1  0
 14 15  2  0
 14 16  1  0
 16 17  1  0
 17 18  2  0
 18 19  1  0
 19 20  2  0
 20 21  1  0
 21 22  3  0
 20 23  1  0
 23 24  1  0
 24 25  1  0
 24 26  1  0
 24 27  1  0
 23 28  2  0
 28 17  1  0
M  END
> <assay_chembl_id>
CHEMBL4477865

> <assay_description>
Antiproliferative activity against human LNCAP cells after 96 hrs by propidium iodide staining based fluorescence 2D monolayer assay

> <document_journal>
Eur J Med Chem

> <molecule_chembl_id>
CHEMBL1738889

> <standard_value>
20900

> <IC50_uM>
20.9

> <Activity>
No

> <Canonical_Smiles>
C[C@](O)(COc1ccc(C#N)cc1)C(=O)Nc1ccc(C#N)c(C(F)(F)F)c1

$$$$

  SciTegic03142313312D

 32 33  0  0  1  0            999 V2000
    5.1983   -3.0012    0.0000 C   0  0
    5.1988   -1.5012    0.0000 C   0  0  2  0  0  0
    5.1992   -0.0012    0.0000 O   0  0
    3.8990   -0.7508    0.0000 C   0  0
    2.5988   -1.5004    0.0000 S   0  0
    2.5983   -3.0004    0.0000 O   0  0
    3.8975   -2.2510    0.0000 O   0  0
    1.2990   -0.7500    0.0000 C   0  0
    1.2990    0.7500    0.0000 C   0  0
    0.0000    1.5000    0.0000 C   0  0
   -1.2990    0.7500    0.0000 C   0  0
   -1.2990   -0.7500    0.0000 C   0  0
    0.0000   -1.5000    0.0000 C   0  0
    0.0000   -3.0008    0.0000 C   0  0
   -1.2986   -3.7517    0.0000 F   0  0
    1.2993   -3.7504    0.0000 F   0  0
    0.0007   -4.5008    0.0000 F   0  0
    6.4990   -0.7516    0.0000 C   0  0
    6.4995    0.7484    0.0000 O   0  0
    7.7988   -1.5020    0.0000 N   0  0
    9.0990   -0.7525    0.0000 C   0  0
   10.3991   -1.5006    0.0000 C   0  0
   11.6971   -0.7487    0.0000 C   0  0
   11.6950    0.7512    0.0000 C   0  0
   12.9937    1.5035    0.0000 C   0  0
   14.2917    2.2553    0.0000 N   0  0
   10.3949    1.4994    0.0000 C   0  0
   10.3928    3.0003    0.0000 C   0  0
   11.6903    3.7529    0.0000 F   0  0
    9.0925    3.7480    0.0000 F   0  0
   10.3900    4.5002    0.0000 F   0  0
    9.0969    0.7476    0.0000 C   0  0
  2  1  1  1
  2  3  1  0
  2  4  1  0
  4  5  1  0
  5  6  2  0
  5  7  2  0
  5  8  1  0
  8  9  2  0
  9 10  1  0
 10 11  2  0
 11 12  1  0
 12 13  2  0
 13  8  1  0
 13 14  1  0
 14 15  1  0
 14 16  1  0
 14 17  1  0
  2 18  1  0
 18 19  2  0
 18 20  1  0
 20 21  1  0
 21 22  2  0
 22 23  1  0
 23 24  2  0
 24 25  1  0
 25 26  3  0
 24 27  1  0
 27 28  1  0
 28 29  1  0
 28 30  1  0
 28 31  1  0
 27 32  2  0
 32 21  1  0
M  END
> <assay_chembl_id>
CHEMBL4477865

> <assay_description>
Antiproliferative activity against human LNCAP cells after 96 hrs by propidium iodide staining based fluorescence 2D monolayer assay

> <document_journal>
Eur J Med Chem

> <molecule_chembl_id>
CHEMBL4575699

> <standard_value>
32230

> <IC50_uM>
32.23

> <Activity>
No

> <Canonical_Smiles>
C[C@](O)(CS(=O)(=O)c1ccccc1C(F)(F)F)C(=O)Nc1ccc(C#N)c(C(F)(F)F)c1

$$$$

  SciTegic03142313312D

 30 31  0  0  1  0            999 V2000
    5.1983   -3.0012    0.0000 C   0  0
    5.1988   -1.5012    0.0000 C   0  0  2  0  0  0
    5.1992   -0.0012    0.0000 O   0  0
    3.8990   -0.7508    0.0000 C   0  0
    2.5988   -1.5004    0.0000 S   0  0
    2.5983   -3.0004    0.0000 O   0  0
    3.8975   -2.2510    0.0000 O   0  0
    1.2990   -0.7500    0.0000 C   0  0
    1.2990    0.7500    0.0000 C   0  0
    0.0000    1.5000    0.0000 C   0  0
   -1.2990    0.7500    0.0000 C   0  0
   -2.5981    1.5000    0.0000 F   0  0
   -1.2990   -0.7500    0.0000 C   0  0
    0.0000   -1.5000    0.0000 C   0  0
    0.0000   -3.0000    0.0000 F   0  0
    6.4990   -0.7516    0.0000 C   0  0
    6.4995    0.7484    0.0000 O   0  0
    7.7988   -1.5020    0.0000 N   0  0
    9.0990   -0.7525    0.0000 C   0  0
   10.3991   -1.5006    0.0000 C   0  0
   11.6971   -0.7487    0.0000 C   0  0
   11.6950    0.7512    0.0000 C   0  0
   12.9937    1.5035    0.0000 C   0  0
   14.2917    2.2553    0.0000 N   0  0
   10.3949    1.4994    0.0000 C   0  0
   10.3928    3.0003    0.0000 C   0  0
   11.6903    3.7529    0.0000 F   0  0
    9.0925    3.7480    0.0000 F   0  0
   10.3900    4.5002    0.0000 F   0  0
    9.0969    0.7476    0.0000 C   0  0
  2  1  1  1
  2  3  1  0
  2  4  1  0
  4  5  1  0
  5  6  2  0
  5  7  2  0
  5  8  1  0
  8  9  2  0
  9 10  1  0
 10 11  2  0
 11 12  1  0
 11 13  1  0
 13 14  2  0
 14  8  1  0
 14 15  1  0
  2 16  1  0
 16 17  2  0
 16 18  1  0
 18 19  1  0
 19 20  2  0
 20 21  1  0
 21 22  2  0
 22 23  1  0
 23 24  3  0
 22 25  1  0
 25 26  1  0
 26 27  1  0
 26 28  1  0
 26 29  1  0
 25 30  2  0
 30 19  1  0
M  END
> <assay_chembl_id>
CHEMBL4477865

> <assay_description>
Antiproliferative activity against human LNCAP cells after 96 hrs by propidium iodide staining based fluorescence 2D monolayer assay

> <document_journal>
Eur J Med Chem

> <molecule_chembl_id>
CHEMBL4574316

> <standard_value>
42260

> <IC50_uM>
42.26

> <Activity>
No

> <Canonical_Smiles>
C[C@](O)(CS(=O)(=O)c1ccc(F)cc1F)C(=O)Nc1ccc(C#N)c(C(F)(F)F)c1

$$$$

  SciTegic03142313312D

 29 30  0  0  1  0            999 V2000
    5.1983   -3.0012    0.0000 C   0  0
    5.1988   -1.5012    0.0000 C   0  0  2  0  0  0
    5.1992   -0.0012    0.0000 O   0  0
    3.8990   -0.7508    0.0000 C   0  0
    2.5988   -1.5004    0.0000 S   0  0
    2.5983   -3.0004    0.0000 O   0  0
    3.8975   -2.2510    0.0000 O   0  0
    1.2990   -0.7500    0.0000 C   0  0
    1.2990    0.7500    0.0000 C   0  0
    0.0000    1.5000    0.0000 C   0  0
   -1.2990    0.7500    0.0000 C   0  0
   -2.5981    1.5000    0.0000 F   0  0
   -1.2990   -0.7500    0.0000 C   0  0
    0.0000   -1.5000    0.0000 C   0  0
    6.4990   -0.7516    0.0000 C   0  0
    6.4995    0.7484    0.0000 O   0  0
    7.7988   -1.5020    0.0000 N   0  0
    9.0990   -0.7525    0.0000 C   0  0
    9.0969    0.7476    0.0000 C   0  0
   10.3949    1.4994    0.0000 C   0  0
   11.6950    0.7512    0.0000 C   0  0
   12.9937    1.5035    0.0000 C   0  0
   14.2917    2.2553    0.0000 N   0  0
   11.6971   -0.7488    0.0000 C   0  0
   10.3991   -1.5006    0.0000 C   0  0
   10.4013   -3.0014    0.0000 C   0  0
   11.7009   -3.7504    0.0000 F   0  0
    9.1031   -3.7528    0.0000 F   0  0
   10.4027   -4.5014    0.0000 F   0  0
  2  1  1  1
  2  3  1  0
  2  4  1  0
  4  5  1  0
  5  6  2  0
  5  7  2  0
  5  8  1  0
  8  9  2  0
  9 10  1  0
 10 11  2  0
 11 12  1  0
 11 13  1  0
 13 14  2  0
 14  8  1  0
  2 15  1  0
 15 16  2  0
 15 17  1  0
 17 18  1  0
 18 19  2  0
 19 20  1  0
 20 21  2  0
 21 22  1  0
 22 23  3  0
 21 24  1  0
 24 25  2  0
 25 18  1  0
 25 26  1  0
 26 27  1  0
 26 28  1  0
 26 29  1  0
M  END
> <assay_chembl_id>
CHEMBL4477865

> <assay_description>
Antiproliferative activity against human LNCAP cells after 96 hrs by propidium iodide staining based fluorescence 2D monolayer assay

> <document_journal>
Eur J Med Chem

> <molecule_chembl_id>
CHEMBL4576691

> <standard_value>
85550

> <IC50_uM>
85.55

> <Activity>
No

> <Canonical_Smiles>
C[C@](O)(CS(=O)(=O)c1ccc(F)cc1)C(=O)Nc1ccc(C#N)cc1C(F)(F)F

$$$$

  SciTegic03142313312D

 29 31  0  0  0  0            999 V2000
    5.5447   -0.6194    0.0000 C   0  0
    4.9531   -1.9978    0.0000 C   0  0
    5.8147   -3.2256    0.0000 C   0  0
    3.9511   -0.8815    0.0000 C   0  0
    4.2566    0.5871    0.0000 O   0  0
    2.5987   -1.5004    0.0000 N   0  0
    1.2990   -0.7500    0.0000 C   0  0
    1.2990    0.7500    0.0000 C   0  0
    0.0000    1.5000    0.0000 C   0  0
   -1.2990    0.7500    0.0000 C   0  0
   -1.2990   -0.7500    0.0000 C   0  0
   -2.5988   -1.5004    0.0000 C   0  0
   -3.8983   -0.7513    0.0000 F   0  0
   -2.5983   -3.0004    0.0000 F   0  0
   -3.8975   -2.2510    0.0000 F   0  0
    0.0000   -1.5000    0.0000 C   0  0
    2.7343   -2.9815    0.0000 C   0  0
    1.6120   -3.9767    0.0000 O   0  0
    4.2010   -3.2956    0.0000 N   0  0
    4.8092   -4.6676    0.0000 C   0  0
    6.3104   -4.7094    0.0000 C   0  0
    7.0198   -6.0311    0.0000 C   0  0
    6.2299   -7.3062    0.0000 C   0  0
    4.7306   -7.2597    0.0000 C   0  0
    4.0212   -5.9381    0.0000 C   0  0
    2.5211   -5.8898    0.0000 C   0  0
    1.7289   -7.1635    0.0000 F   0  0
    1.8138   -4.5671    0.0000 F   0  0
    1.0219   -5.8408    0.0000 F   0  0
  1  2  1  0
  2  3  1  0
  2  4  1  0
  4  5  2  0
  4  6  1  0
  6  7  1  0
  7  8  2  0
  8  9  1  0
  9 10  2  0
 10 11  1  0
 11 12  1  0
 12 13  1  0
 12 14  1  0
 12 15  1  0
 11 16  2  0
 16  7  1  0
  6 17  1  0
 17 18  2  0
 17 19  1  0
 19  2  1  0
 19 20  1  0
 20 21  2  0
 21 22  1  0
 22 23  2  0
 23 24  1  0
 24 25  2  0
 25 20  1  0
 25 26  1  0
 26 27  1  0
 26 28  1  0
 26 29  1  0
M  END
> <assay_chembl_id>
CHEMBL4477865

> <assay_description>
Antiproliferative activity against human LNCAP cells after 96 hrs by propidium iodide staining based fluorescence 2D monolayer assay

> <document_journal>
Eur J Med Chem

> <molecule_chembl_id>
CHEMBL4556561

> <standard_value>
28280

> <IC50_uM>
28.28

> <Activity>
No

> <Canonical_Smiles>
CC1(C)C(=O)N(c2cccc(C(F)(F)F)c2)C(=O)N1c1ccccc1C(F)(F)F

$$$$

  SciTegic03142313312D

 33 38  0  0  0  0            999 V2000
    4.8897   -3.2954    0.0000 N   0  0
    4.0445   -4.5346    0.0000 C   0  0
    4.6946   -5.8864    0.0000 N   0  0
    3.8490   -7.1253    0.0000 C   0  0
    2.3532   -7.0124    0.0000 C   0  0
    1.7031   -5.6606    0.0000 C   0  0
    2.5536   -4.4230    0.0000 C   0  0
    1.8032   -3.1233    0.0000 C   0  0
    2.4133   -1.7530    0.0000 N   0  0
    1.2990   -0.7500    0.0000 C   0  0
    1.2990    0.7500    0.0000 C   0  0
    0.0000    1.5000    0.0000 C   0  0
   -1.2990    0.7500    0.0000 C   0  0
   -2.5987    1.5004    0.0000 C   0  0
   -2.6012    3.0004    0.0000 C   0  0
   -3.9015    3.7484    0.0000 C   0  0
   -5.1993    2.9963    0.0000 C   0  0
   -5.1969    1.4963    0.0000 C   0  0
   -3.8967    0.7484    0.0000 C   0  0
   -1.2990   -0.7500    0.0000 N   0  0
    0.0000   -1.5000    0.0000 C   0  0
    0.3114   -2.9665    0.0000 N   0  0
   -0.6928   -4.0817    0.0000 C   0  0
   -2.1743   -3.8808    0.0000 C   0  0
   -3.0913   -5.0679    0.0000 C   0  0
   -2.5218   -6.4556    0.0000 C   0  0
   -3.4392   -7.6434    0.0000 C   0  0
   -2.8668   -9.0299    0.0000 N   0  0
   -4.2573   -6.4638    0.0000 C   0  0
   -5.4493   -7.3744    0.0000 C   0  0
   -4.5387   -8.5664    0.0000 C   0  0
   -1.0353   -6.6562    0.0000 C   0  0
   -0.1183   -5.4691    0.0000 C   0  0
  1  2  1  0
  2  3  2  0
  3  4  1  0
  4  5  2  0
  5  6  1  0
  6  7  2  0
  7  2  1  0
  7  8  1  0
  8  9  2  0
  9 10  1  0
 10 11  2  0
 11 12  1  0
 12 13  2  0
 13 14  1  0
 14 15  2  0
 15 16  1  0
 16 17  2  0
 17 18  1  0
 18 19  2  0
 19 14  1  0
 13 20  1  0
 20 21  2  0
 21 10  1  0
 21 22  1  0
 22  8  1  0
 22 23  1  0
 23 24  2  0
 24 25  1  0
 25 26  2  0
 26 27  1  0
 27 28  1  0
 27 29  1  0
 29 30  1  0
 30 31  1  0
 31 27  1  0
 26 32  1  0
 32 33  2  0
 33 23  1  0
M  END
> <assay_chembl_id>
CHEMBL4478662

> <assay_description>
Antiproliferative activity against human LNCAP cells after 72 hrs by MTS/PMS assay

> <document_journal>
J Med Chem

> <molecule_chembl_id>
CHEMBL4523032

> <standard_value>
900

> <IC50_uM>
0.9

> <Activity>
Yes

> <RemovedSalts>
HCl

> <Canonical_Smiles>
Cl.Nc1ncccc1-c1nc2ccc(-c3ccccc3)nc2n1-c1ccc(C2(N)CCC2)cc1

$$$$

  SciTegic03142313312D

 34 39  0  0  0  0            999 V2000
    3.8919   -5.2525    0.0000 N   0  0
    3.8943   -3.7525    0.0000 C   0  0
    5.1945   -3.0045    0.0000 C   0  0
    5.1969   -1.5045    0.0000 C   0  0
    3.8991   -0.7525    0.0000 C   0  0
    2.5987   -1.5004    0.0000 C   0  0
    1.2990   -0.7500    0.0000 C   0  0
    1.2990    0.7500    0.0000 C   0  0
    0.0000    1.5000    0.0000 C   0  0
   -1.2990    0.7500    0.0000 C   0  0
   -2.7248    1.2135    0.0000 N   0  0
   -3.6065    0.0000    0.0000 C   0  0
   -5.1072    0.0000    0.0000 C   0  0
   -5.7538   -1.3554    0.0000 C   0  0
   -7.2495   -1.4683    0.0000 C   0  0
   -8.0952   -0.2294    0.0000 C   0  0
   -7.4450    1.1224    0.0000 N   0  0
   -5.9493    1.2353    0.0000 C   0  0
   -5.2988    2.5869    0.0000 N   0  0
   -2.7248   -1.2135    0.0000 N   0  0
   -3.1884   -2.6409    0.0000 C   0  0
   -4.6234   -3.0602    0.0000 C   0  0
   -4.9781   -4.5176    0.0000 C   0  0
   -3.8933   -5.5536    0.0000 C   0  0
   -4.2480   -7.0119    0.0000 C   0  0
   -3.1610   -8.0455    0.0000 N   0  0
   -5.4753   -6.2672    0.0000 C   0  0
   -6.1936   -7.5840    0.0000 C   0  0
   -4.8769   -8.3023    0.0000 C   0  0
   -2.4537   -5.1320    0.0000 C   0  0
   -2.0990   -3.6745    0.0000 C   0  0
   -1.2990   -0.7500    0.0000 C   0  0
    0.0000   -1.5000    0.0000 N   0  0
    2.5965   -3.0004    0.0000 C   0  0
  1  2  1  0
  2  3  2  0
  3  4  1  0
  4  5  2  0
  5  6  1  0
  6  7  1  0
  7  8  2  0
  8  9  1  0
  9 10  2  0
 10 11  1  0
 11 12  2  0
 12 13  1  0
 13 14  2  0
 14 15  1  0
 15 16  2  0
 16 17  1  0
 17 18  2  0
 18 13  1  0
 18 19  1  0
 12 20  1  0
 20 21  1  0
 21 22  2  0
 22 23  1  0
 23 24  2  0
 24 25  1  0
 25 26  1  0
 25 27  1  0
 27 28  1  0
 28 29  1  0
 29 25  1  0
 24 30  1  0
 30 31  2  0
 31 21  1  0
 20 32  1  0
 32 10  1  0
 32 33  2  0
 33  7  1  0
  6 34  2  0
 34  2  1  0
M  END
> <assay_chembl_id>
CHEMBL4478662

> <assay_description>
Antiproliferative activity against human LNCAP cells after 72 hrs by MTS/PMS assay

> <document_journal>
J Med Chem

> <molecule_chembl_id>
CHEMBL4574111

> <standard_value>
130

> <IC50_uM>
0.13

> <Activity>
Yes

> <RemovedSalts>
HCl

> <Canonical_Smiles>
Cl.Nc1cccc(-c2ccc3nc(-c4cccnc4N)n(-c4ccc(C5(N)CCC5)cc4)c3n2)c1

$$$$

  SciTegic03142313312D

 24 26  0  0  0  0            999 V2000
    7.8010   -2.9850    0.0000 C   0  0
    7.7980   -1.4850    0.0000 O   0  0
    6.4972   -0.7364    0.0000 C   0  0
    5.2007   -1.4909    0.0000 C   0  0
    3.8990   -0.7455    0.0000 C   0  0
    2.6003   -1.4977    0.0000 N   0  0
    1.2990   -0.7500    0.0000 C   0  0
    1.2990    0.7500    0.0000 C   0  0
    0.0000    1.5000    0.0000 C   0  0
   -1.2990    0.7500    0.0000 N   0  0
   -1.2990   -0.7500    0.0000 C   0  0
   -2.5981   -1.5000    0.0000 C   0  0
   -2.5981   -3.0000    0.0000 C   0  0
   -1.2990   -3.7500    0.0000 C   0  0
   -1.2990   -5.2500    0.0000 Br  0  0
    0.0000   -3.0000    0.0000 C   0  0
    0.0000   -1.5000    0.0000 C   0  0
    3.8939    0.7546    0.0000 C   0  0
    5.1903    1.5091    0.0000 C   0  0
    5.1821    3.0099    0.0000 O   0  0
    3.8794    3.7535    0.0000 C   0  0
    6.4920    0.7636    0.0000 C   0  0
    7.7907    1.5158    0.0000 O   0  0
    9.0912    0.7685    0.0000 C   0  0
  1  2  1  0
  2  3  1  0
  3  4  2  0
  4  5  1  0
  5  6  1  0
  6  7  1  0
  7  8  2  0
  8  9  1  0
  9 10  2  0
 10 11  1  0
 11 12  2  0
 12 13  1  0
 13 14  2  0
 14 15  1  0
 14 16  1  0
 16 17  2  0
 17  7  1  0
 17 11  1  0
  5 18  2  0
 18 19  1  0
 19 20  1  0
 20 21  1  0
 19 22  2  0
 22  3  1  0
 22 23  1  0
 23 24  1  0
M  END
> <assay_chembl_id>
CHEMBL4481514

> <assay_description>
Cytotoxicity against human LNCAP cells after 72 hrs by MTS assay

> <document_journal>
J Med Chem

> <molecule_chembl_id>
CHEMBL4443342

> <standard_value>
650

> <IC50_uM>
0.65

> <Activity>
Yes

> <Canonical_Smiles>
COc1cc(Nc2ccnc3ccc(Br)cc23)cc(OC)c1OC

$$$$

  SciTegic03142313312D

 31 34  0  0  0  0            999 V2000
    3.8988   -3.7512    0.0000 C   0  0
    2.5997   -3.0012    0.0000 C   0  0
    1.3009   -3.7516    0.0000 C   0  0
    2.6000   -4.5012    0.0000 C   0  0
    2.5988   -1.5004    0.0000 S   0  0
    3.8976   -0.7500    0.0000 O   0  0
    2.5986   -0.0004    0.0000 O   0  0
    1.2990   -0.7500    0.0000 C   0  0
    1.2990    0.7500    0.0000 C   0  0
    0.0000    1.5000    0.0000 C   0  0
    0.0000    3.0000    0.0000 C   0  0
    1.2982    3.7531    0.0000 N   0  0
    1.2960    5.2539    0.0000 C   0  0
    2.5925    6.0085    0.0000 C   0  0
    2.5873    7.5085    0.0000 C   0  0
    1.2856    8.2540    0.0000 C   0  0
    0.9691    9.7194    0.0000 S   0  0
   -0.5232    9.8710    0.0000 C   0  0
   -1.1286    8.4986    0.0000 N   0  0
   -0.0108    7.4995    0.0000 C   0  0
   -0.0056    5.9995    0.0000 C   0  0
   -1.2991    3.7500    0.0000 N   0  0
   -2.5981    3.0000    0.0000 C   0  0
   -2.5981    1.5000    0.0000 N   0  0
   -1.2990    0.7500    0.0000 C   0  0
   -1.2990   -0.7500    0.0000 C   0  0
    0.0000   -1.5000    0.0000 C   0  0
   -0.0031   -3.0008    0.0000 O   0  0
   -1.3039   -3.7494    0.0000 C   0  0
   -1.3070   -5.2502    0.0000 C   0  0
   -2.6071   -5.9984    0.0000 O   0  0
  1  2  1  0
  2  3  1  0
  2  4  1  0
  2  5  1  0
  5  6  2  0
  5  7  2  0
  5  8  1  0
  8  9  2  0
  9 10  1  0
 10 11  2  0
 11 12  1  0
 12 13  1  0
 13 14  2  0
 14 15  1  0
 15 16  2  0
 16 17  1  0
 17 18  1  0
 18 19  2  0
 19 20  1  0
 20 16  1  0
 20 21  2  0
 21 13  1  0
 11 22  1  0
 22 23  2  0
 23 24  1  0
 24 25  2  0
 25 10  1  0
 25 26  1  0
 26 27  2  0
 27  8  1  0
 27 28  1  0
 28 29  1  0
 29 30  1  0
 30 31  1  0
M  END
> <assay_chembl_id>
CHEMBL4481514

> <assay_description>
Cytotoxicity against human LNCAP cells after 72 hrs by MTS assay

> <document_journal>
J Med Chem

> <molecule_chembl_id>
CHEMBL4514780

> <standard_value>
99000

> <IC50_uM>
99

> <Activity>
No

> <Canonical_Smiles>
CC(C)(C)S(=O)(=O)c1cc2c(Nc3ccc4scnc4c3)ncnc2cc1OCCO

$$$$

  SciTegic03142313312D

 59 69  0  0  1  0            999 V2000
    2.7124    1.4288    0.0000 C   0  0
    2.6346   -0.0692    0.0000 C   0  0
    1.2990   -0.7500    0.0000 C   0  0  1  0  0  0
    1.2990    0.7500    0.0000 C   0  0
    0.0000    1.5000    0.0000 C   0  0
    0.0031    3.0008    0.0000 C   0  0
   -1.2947    3.7531    0.0000 O   0  0
    1.3039    3.7494    0.0000 O   0  0
    1.3070    5.2494    0.0000 C   0  0
   -1.2990    0.7500    0.0000 C   0  0
   -2.7272    1.1906    0.0000 N   0  0
   -3.6011   -0.0286    0.0000 C   0  0
   -5.0909   -0.1941    0.0000 C   0  0
   -5.6922   -1.5683    0.0000 C   0  0
   -4.8028   -2.7762    0.0000 C   0  0
   -3.3121   -2.6098    0.0000 C   0  0
   -2.7117   -1.2364    0.0000 C   0  0
   -1.2990   -0.7500    0.0000 C   0  0  1  0  0  0
   -2.4133   -1.7584    0.0000 C   0  0
   -1.8029   -3.1286    0.0000 C   0  0
   -0.3111   -2.9715    0.0000 N   0  0  3  0  0  0
    0.9833   -3.8195    0.0000 C   0  0
    2.3531   -3.2082    0.0000 C   0  0  2  0  0  0
    3.5674   -4.0889    0.0000 O   0  0
    2.5086   -1.7163    0.0000 C   0  0  1  0  0  0
    3.8923   -1.1371    0.0000 O   0  0
    0.0000   -1.5000    0.0000 C   0  0  1  0  0  0
   -5.6760   -3.9948    0.0000 C   0  0  2  0  0  0
   -7.1055   -3.5404    0.0000 C   0  0  2  0  0  0
   -7.1151   -2.0405    0.0000 O   0  0
   -8.2134   -4.5501    0.0000 C   0  0  1  0  0  0
   -9.1664   -4.2469    0.0000 O   0  0
   -7.8922   -6.0152    0.0000 C   0  0  1  0  0  0
   -9.3426   -5.6364    0.0000 C   0  0
   -9.6071   -4.6720    0.0000 C   0  0
   -8.8666   -7.2183    0.0000 C   0  0
   -8.3940   -8.6419    0.0000 C   0  0
   -9.3934   -9.7616    0.0000 C   0  0
   -8.9233  -11.1860    0.0000 O   0  0
  -10.8630   -9.4568    0.0000 O   0  0
  -11.8618  -10.5759    0.0000 C   0  0
   -6.9248   -8.9444    0.0000 C   0  0
   -6.2099  -10.2583    0.0000 N   0  0
   -4.7315  -10.0044    0.0000 C   0  0
   -4.5161   -8.5199    0.0000 C   0  0
   -3.1240   -7.9639    0.0000 C   0  0
   -1.9461   -8.8927    0.0000 C   0  0
   -0.5529   -8.3370    0.0000 O   0  0
   -2.1615  -10.3771    0.0000 C   0  0
   -0.9849  -11.3088    0.0000 O   0  0
   -1.2024  -12.7930    0.0000 C   0  0
   -3.5548  -10.9328    0.0000 C   0  0
   -3.7678  -12.4185    0.0000 O   0  0
   -2.5889  -13.3460    0.0000 C   0  0
   -5.8443   -7.8354    0.0000 C   0  0  1  0  0  0
   -4.3536   -7.6690    0.0000 C   0  0
   -4.0511   -6.1998    0.0000 C   0  0
   -5.3544   -5.4588    0.0000 N   0  0  3  0  0  0
   -6.4626   -6.4696    0.0000 C   0  0  1  0  0  0
  1  2  1  0
  3  2  1  1
  3  4  1  0
  4  5  1  0
  5  6  1  0
  6  7  2  0
  6  8  1  0
  8  9  1  0
  5 10  2  0
 10 11  1  0
 11 12  1  0
 12 13  2  0
 13 14  1  0
 14 15  2  0
 15 16  1  0
 16 17  2  0
 17 12  1  0
 17 18  1  0
 18 10  1  0
 18 19  1  6
 19 20  1  0
 21 20  1  4
 21 22  1  0
 22 23  1  0
 23 24  1  1
 23 25  1  0
 25  3  1  0
 25 26  1  6
 27 21  1  6
 27  3  1  0
 27 18  1  0
 28 15  1  1
 28 29  1  0
 29 30  1  1
 30 14  1  0
 29 31  1  0
 31 32  1  6
 31 33  1  0
 33 34  1  1
 34 35  1  0
 33 36  1  0
 36 37  1  0
 37 38  1  0
 38 39  2  0
 38 40  1  0
 40 41  1  0
 37 42  2  0
 42 43  1  0
 43 44  1  0
 44 45  2  0
 45 46  1  0
 46 47  2  0
 47 48  1  0
 47 49  1  0
 49 50  1  0
 50 51  1  0
 49 52  2  0
 52 44  1  0
 52 53  1  0
 53 54  1  0
 45 55  1  0
 55 42  1  0
 55 56  1  6
 56 57  1  0
 58 57  1  4
 58 28  1  0
 59 58  1  6
 59 33  1  0
 59 55  1  0
M  END
> <assay_chembl_id>
CHEMBL4482064

> <assay_description>
Cytotoxicity against human LNCAP cells after 72 hrs by MTT assay

> <document_journal>
J Nat Prod

> <molecule_chembl_id>
CHEMBL4520335

> <standard_value>
300

> <IC50_uM>
0.3

> <Activity>
Yes

> <Canonical_Smiles>
CC[C@@]12CC(C(=O)OC)=C3Nc4cc5c(cc4[C@@]34CCN(C[C@H](O)[C@H]1O)[C@@H]24)[C@@H]1[C@H](O5)[C@@H](O)[C@@]2(CC)CC(C(=O)OC)=C3Nc4c(cc(O)c(OC)c4OC)[C@@]34CCN1[C@@H]24

$$$$

  SciTegic03142313312D

 55 61  0  0  0  0            999 V2000
    7.7964    1.5111    0.0000 C   0  0
    6.4978    0.7603    0.0000 O   0  0
    6.4978   -0.7405    0.0000 C   0  0
    7.7984   -1.4879    0.0000 C   0  0
    7.8015   -2.9879    0.0000 C   0  0
    6.5040   -3.7405    0.0000 C   0  0
    5.2034   -2.9932    0.0000 C   0  0
    5.2003   -1.4932    0.0000 C   0  0
    3.8990   -0.7455    0.0000 S   0  0
    3.8964    0.7545    0.0000 O   0  0
    2.5988    0.0025    0.0000 O   0  0
    2.6003   -1.4977    0.0000 N   0  0
    1.2990   -0.7500    0.0000 C   0  0
    1.2990    0.7500    0.0000 C   0  0
    0.0000    1.5000    0.0000 C   0  0
   -1.2990    0.7500    0.0000 C   0  0
   -1.2990   -0.7500    0.0000 C   0  0
   -2.7248   -1.2135    0.0000 C   0  0
   -2.8161   -2.7592    0.0000 C   0  0
   -1.6025   -3.6408    0.0000 C   0  0
   -1.7563   -5.1338    0.0000 C   0  0
   -0.5408   -6.0142    0.0000 C   0  0
   -0.6946   -7.5071    0.0000 C   0  0
   -2.0638   -8.1196    0.0000 O   0  0
    0.5209   -8.3875    0.0000 N   0  0
    0.3671   -9.8804    0.0000 C   0  0
    1.5826  -10.7608    0.0000 C   0  0
    1.4288  -12.2537    0.0000 C   0  0
    2.6443  -13.1341    0.0000 C   0  0
    2.4906  -14.6271    0.0000 N   0  0
    3.7060  -15.5075    0.0000 C   0  0
    5.0743  -14.8926    0.0000 C   0  0
    6.2909  -15.7701    0.0000 C   0  0
    6.1393  -17.2624    0.0000 C   0  0
    4.7711  -17.8773    0.0000 C   0  0
    3.5545  -16.9998    0.0000 C   0  0
    2.3446  -17.8850    0.0000 C   0  0
    0.9164  -17.4264    0.0000 O   0  0
    2.8131  -19.3100    0.0000 N   0  0
    1.9352  -20.5272    0.0000 C   0  0  3  0  0  0
    2.6563  -21.8445    0.0000 C   0  0
    1.8728  -23.1236    0.0000 C   0  0
    0.3733  -23.0848    0.0000 C   0  0
   -0.4101  -24.3639    0.0000 O   0  0
   -0.3427  -21.7667    0.0000 N   0  0
    0.4407  -20.4876    0.0000 C   0  0
   -0.2750  -19.1693    0.0000 O   0  0
    4.3131  -19.3048    0.0000 C   0  0
    5.1991  -20.5151    0.0000 O   0  0
   -0.2322   -3.0307    0.0000 C   0  0
    0.0000   -1.5000    0.0000 C   0  0
   -3.6065    0.0000    0.0000 C   0  0
   -5.1065    0.0000    0.0000 O   0  0
   -2.7248    1.2135    0.0000 N   0  0
   -3.1882    2.6401    0.0000 C   0  0
  1  2  1  0
  2  3  1  0
  3  4  2  0
  4  5  1  0
  5  6  2  0
  6  7  1  0
  7  8  2  0
  8  3  1  0
  8  9  1  0
  9 10  2  0
  9 11  2  0
  9 12  1  0
 12 13  1  0
 13 14  2  0
 14 15  1  0
 15 16  2  0
 16 17  1  0
 17 18  2  0
 18 19  1  0
 19 20  2  0
 20 21  1  0
 21 22  1  0
 22 23  1  0
 23 24  2  0
 23 25  1  0
 25 26  1  0
 26 27  1  0
 27 28  1  0
 28 29  1  0
 29 30  1  0
 30 31  1  0
 31 32  2  0
 32 33  1  0
 33 34  2  0
 34 35  1  0
 35 36  2  0
 36 31  1  0
 36 37  1  0
 37 38  2  0
 37 39  1  0
 40 39  1  4
 40 41  1  0
 41 42  1  0
 42 43  1  0
 43 44  2  0
 43 45  1  0
 45 46  1  0
 46 40  1  0
 46 47  2  0
 39 48  1  0
 48 35  1  0
 48 49  2  0
 20 50  1  0
 50 51  2  0
 51 13  1  0
 51 17  1  0
 18 52  1  0
 52 53  2  0
 52 54  1  0
 54 16  1  0
 54 55  1  0
M  END
> <assay_chembl_id>
CHEMBL4610549

> <assay_description>
Antiproliferative activity against human LNCAP cells assessed as reduction in cell viability

> <document_journal>
Bioorg Med Chem

> <molecule_chembl_id>
CHEMBL4633483

> <standard_value>
620

> <IC50_uM>
0.62

> <Activity>
Yes

> <Canonical_Smiles>
COc1ccccc1S(=O)(=O)Nc1ccc2c3c(cc(CCC(=O)NCCCCNc4cccc5c4C(=O)N(C4CCC(=O)NC4=O)C5=O)cc13)C(=O)N2C

$$$$

  SciTegic03142313312D

 30 32  0  0  0  0            999 V2000
   14.2963    0.7727    0.0000 O   0  0
   14.2989   -0.7273    0.0000 C   0  0
   13.0002   -1.4796    0.0000 C   0  0
   11.6990   -0.7319    0.0000 C   0  0
   10.4003   -1.4841    0.0000 C   0  0
    9.0990   -0.7364    0.0000 C   0  0
    7.8003   -1.4887    0.0000 C   0  0
    6.4990   -0.7409    0.0000 C   0  0
    5.2003   -1.4932    0.0000 C   0  0
    3.8990   -0.7455    0.0000 C   0  0
    2.6003   -1.4977    0.0000 N   0  0
    1.2990   -0.7500    0.0000 C   0  0
    1.2990    0.7500    0.0000 N   0  0
    0.0000    1.5000    0.0000 C   0  0
    0.0000    3.0000    0.0000 C   0  0
   -1.2991    3.7500    0.0000 C   0  0
   -1.3022    5.2508    0.0000 C   0  0
   -2.6023    5.9990    0.0000 O   0  0
   -0.0044    6.0031    0.0000 O   0  0
   -2.5981    3.0000    0.0000 C   0  0
   -2.5981    1.5000    0.0000 C   0  0
   -1.2990    0.7500    0.0000 C   0  0
   -1.2990   -0.7500    0.0000 C   0  0
   -2.5981   -1.5000    0.0000 C   0  0
   -2.5981   -3.0000    0.0000 N   0  0
   -1.2990   -3.7500    0.0000 C   0  0
    0.0000   -3.0000    0.0000 C   0  0
    0.0000   -1.5000    0.0000 C   0  0
   15.6002   -1.4751    0.0000 N   0  0
   16.8982   -0.7232    0.0000 O   0  0
  1  2  2  0
  2  3  1  0
  3  4  1  0
  4  5  1  0
  5  6  1  0
  6  7  1  0
  7  8  1  0
  8  9  1  0
  9 10  1  0
 10 11  1  0
 11 12  1  0
 12 13  2  0
 13 14  1  0
 14 15  2  0
 15 16  1  0
 16 17  1  0
 17 18  2  0
 17 19  1  0
 16 20  2  0
 20 21  1  0
 21 22  2  0
 22 14  1  0
 22 23  1  0
 23 24  2  0
 24 25  1  0
 25 26  2  0
 26 27  1  0
 27 28  2  0
 28 12  1  0
 28 23  1  0
  2 29  1  0
 29 30  1  0
M  END
> <assay_chembl_id>
CHEMBL4612440

> <assay_description>
Antiproliferative activity against human LNCAP cells incubated for 96 hrs by resazurin assay

> <document_journal>
ACS Med Chem Lett

> <molecule_chembl_id>
CHEMBL4637976

> <standard_value>
66700

> <IC50_uM>
66.7

> <Activity>
No

> <RemovedSalts>
OC(=O)C(F)(F)F

> <Canonical_Smiles>
O=C(CCCCCCCCNc1nc2cc(C(=O)O)ccc2c2cnccc12)NO.O=C(O)C(F)(F)F

$$$$

  SciTegic03142313312D

 40 43  0  0  1  0            999 V2000
   18.0012    2.5254    0.0000 C   0  0
   17.2446    1.2303    0.0000 C   0  0
   17.9883   -0.0724    0.0000 O   0  0
   15.7438    1.2384    0.0000 O   0  0
   14.9996    2.5418    0.0000 C   0  0  1  0  0  0
   15.7563    3.8370    0.0000 C   0  0
   13.4988    2.5500    0.0000 C   0  0
   12.7547    3.8533    0.0000 C   0  0
   13.5105    5.1499    0.0000 C   0  0
   15.0105    5.1432    0.0000 O   0  0
   12.7664    6.4533    0.0000 N   0  0
   13.5222    7.7499    0.0000 C   0  0  2  0  0  0
   15.0222    7.7405    0.0000 C   0  0
   15.7803    9.0349    0.0000 C   0  0  2  0  0  0
   17.2802    9.0255    0.0000 C   0  0
   15.0384   10.3386    0.0000 C   0  0  2  0  0  0
   15.7995   11.6321    0.0000 C   0  0
   17.3003   11.6207    0.0000 C   0  0
   18.0614   12.9142    0.0000 C   0  0
   17.3218   14.2192    0.0000 C   0  0
   19.5622   12.9027    0.0000 C   0  0
   20.3234   14.1962    0.0000 C   0  0
   21.8242   14.1847    0.0000 C   0  0  1  0  0  0
   22.5564   12.8786    0.0000 O   0  0
   24.0538   12.8687    0.0000 C   0  0  2  0  0  0
   24.7936   11.5630    0.0000 C   0  0
   26.2936   11.5499    0.0000 C   0  0
   27.0324   10.2445    0.0000 C   0  0
   26.2712    8.9519    0.0000 C   0  0
   24.7713    8.9649    0.0000 C   0  0
   24.0325   10.2704    0.0000 C   0  0
   24.8189   14.1650    0.0000 C   0  0
   24.0867   15.4711    0.0000 C   0  0  2  0  0  0
   24.0965   16.9685    0.0000 C   0  0
   25.3928   16.2033    0.0000 O   0  0
   22.5893   15.4810    0.0000 C   0  0  2  0  0  0
   21.8499   16.7861    0.0000 O   0  0
   13.5384   10.3479    0.0000 O   0  0
   12.7803    9.0536    0.0000 C   0  0  2  0  0  0
   11.2803    9.0629    0.0000 C   0  0
  1  2  1  0
  2  3  2  0
  2  4  1  0
  4  5  1  0
  5  6  1  6
  5  7  1  0
  7  8  2  0
  8  9  1  0
  9 10  2  0
  9 11  1  0
 12 11  1  1
 12 13  1  0
 13 14  1  0
 14 15  1  1
 14 16  1  0
 16 17  1  1
 17 18  1  0
 18 19  2  0
 19 20  1  0
 19 21  1  0
 21 22  2  0
 23 22  1  6
 23 24  1  0
 24 25  1  0
 25 26  1  1
 26 27  2  0
 27 28  1  0
 28 29  2  0
 29 30  1  0
 30 31  2  0
 31 26  1  0
 25 32  1  0
 33 32  1  6
 33 34  1  0
 34 35  1  0
 35 33  1  0
 33 36  1  0
 36 23  1  0
 36 37  1  1
 16 38  1  0
 38 39  1  0
 39 12  1  0
 39 40  1  1
M  END
> <assay_chembl_id>
CHEMBL4619226

> <assay_description>
Suppression of AR-V7 expression in human LNCAP cells expressing GFP

> <document_journal>
ACS Med Chem Lett

> <molecule_chembl_id>
CHEMBL4636182

> <standard_value>
132

> <IC50_uM>
0.132

> <Activity>
Yes

> <Canonical_Smiles>
CC(=O)O[C@@H](C)/C=C\C(=O)N[C@@H]1C[C@H](C)[C@H](C/C=C(C)/C=C/[C@H]2O[C@H](c3ccccc3)C[C@@]3(CO3)[C@@H]2O)O[C@@H]1C

$$$$

  SciTegic03142313312D

 20 22  0  0  0  0            999 V2000
    3.8983   -0.7459    0.0000 C   0  0
    2.6003   -1.4977    0.0000 N   0  0
    1.2990   -0.7500    0.0000 C   0  0
    1.2990    0.7500    0.0000 C   0  0
    2.5972    1.5031    0.0000 N   0  3
    2.5951    3.0031    0.0000 O   0  0
    3.8976    0.7554    0.0000 O   0  5
    0.0000    1.5000    0.0000 C   0  0
    0.0000    3.0008    0.0000 C   0  0
    1.2978    3.7529    0.0000 C   0  0
    1.2954    5.2529    0.0000 C   0  0
   -0.0048    6.0009    0.0000 N   0  0
   -1.3026    5.2488    0.0000 C   0  0
   -1.3002    3.7488    0.0000 C   0  0
   -1.2990    0.7500    0.0000 N   0  0
   -1.2990   -0.7500    0.0000 C   0  0
   -2.4133   -1.7530    0.0000 N   0  0
   -1.8032   -3.1233    0.0000 C   0  0
   -0.3114   -2.9665    0.0000 N   0  0
    0.0000   -1.5000    0.0000 N   0  0
  1  2  1  0
  2  3  1  0
  3  4  2  0
  4  5  1  0
  5  6  2  0
  5  7  1  0
  4  8  1  0
  8  9  1  0
  9 10  2  0
 10 11  1  0
 11 12  2  0
 12 13  1  0
 13 14  2  0
 14  9  1  0
  8 15  2  0
 15 16  1  0
 16 17  2  0
 17 18  1  0
 18 19  2  0
 19 20  1  0
 20  3  1  0
 20 16  1  0
M  CHG  2   5   1   7  -1
M  END
> <assay_chembl_id>
CHEMBL4628894

> <assay_description>
Cytotoxicity against human LNCAP cells assessed as reduction in cell viability incubated for 48 hrs by MTT assay

> <document_journal>
Bioorg Med Chem Lett

> <molecule_chembl_id>
CHEMBL4649271

> <standard_value>
31670

> <IC50_uM>
31.67

> <Activity>
No

> <Canonical_Smiles>
CNc1c([N+](=O)[O-])c(-c2ccncc2)nc2ncnn12

$$$$

  SciTegic03142313312D

 23 25  0  0  0  0            999 V2000
    3.8983   -0.7459    0.0000 C   0  0
    2.6003   -1.4977    0.0000 N   0  0
    1.2990   -0.7500    0.0000 C   0  0
    1.2990    0.7500    0.0000 C   0  0
    2.5972    1.5031    0.0000 N   0  3
    2.5951    3.0031    0.0000 O   0  0
    3.8976    0.7554    0.0000 O   0  5
    0.0000    1.5000    0.0000 C   0  0  3  0  0  0
    0.0000    3.0008    0.0000 C   0  0
    1.2978    3.7529    0.0000 C   0  0
    1.2954    5.2529    0.0000 C   0  0
   -0.0048    6.0009    0.0000 C   0  0
   -0.0103    7.5017    0.0000 N   0  3
   -1.3116    8.2478    0.0000 O   0  0
    1.2863    8.2560    0.0000 O   0  5
   -1.3026    5.2488    0.0000 C   0  0
   -1.3002    3.7488    0.0000 C   0  0
   -1.2990    0.7500    0.0000 N   0  0
   -1.2990   -0.7500    0.0000 C   0  0
   -2.4133   -1.7530    0.0000 N   0  0
   -1.8032   -3.1233    0.0000 C   0  0
   -0.3114   -2.9665    0.0000 N   0  0
    0.0000   -1.5000    0.0000 N   0  0
  1  2  1  0
  2  3  1  0
  3  4  2  0
  4  5  1  0
  5  6  2  0
  5  7  1  0
  4  8  1  0
  8  9  1  4
  9 10  2  0
 10 11  1  0
 11 12  2  0
 12 13  1  0
 13 14  2  0
 13 15  1  0
 12 16  1  0
 16 17  2  0
 17  9  1  0
  8 18  1  0
 18 19  1  0
 19 20  2  0
 20 21  1  0
 21 22  2  0
 22 23  1  0
 23 19  1  0
 23  3  1  0
M  CHG  4   5   1   7  -1  13   1  15  -1
M  END
> <assay_chembl_id>
CHEMBL4628894

> <assay_description>
Cytotoxicity against human LNCAP cells assessed as reduction in cell viability incubated for 48 hrs by MTT assay

> <document_journal>
Bioorg Med Chem Lett

> <molecule_chembl_id>
CHEMBL4643263

> <standard_value>
28570

> <IC50_uM>
28.57

> <Activity>
No

> <Canonical_Smiles>
CNC1=C([N+](=O)[O-])C(c2ccc([N+](=O)[O-])cc2)Nc2ncnn21

$$$$

  SciTegic03142313312D

 75 76  0  0  1  0            999 V2000
    5.1873   -7.5109    0.0000 C   0  0
    5.1894   -6.0109    0.0000 C   0  0
    3.8912   -5.2578    0.0000 N   0  0
    2.5917   -6.0086    0.0000 C   0  0
    2.5912   -7.5086    0.0000 C   0  0
    3.8933   -3.7570    0.0000 C   0  0
    5.1937   -3.0093    0.0000 S   0  0
    2.5951   -3.0039    0.0000 S   0  0
    2.5973   -1.5031    0.0000 C   0  0
    1.2990   -0.7500    0.0000 C   0  0
    1.2990    0.7500    0.0000 C   0  0
    0.0000    1.5000    0.0000 C   0  0
   -1.2990    0.7500    0.0000 C   0  0
   -2.6003    1.4977    0.0000 N   0  0
   -3.8990    0.7455    0.0000 C   0  0
   -3.8964   -0.7545    0.0000 O   0  0
   -5.2003    1.4932    0.0000 C   0  0  2  0  0  0
   -5.2060    2.9940    0.0000 C   0  0
   -6.5082    3.7403    0.0000 C   0  0
   -6.5139    5.2403    0.0000 C   0  0
   -7.3724    3.2373    0.0000 C   0  0
   -6.4990    0.7409    0.0000 N   0  0
   -7.8003    1.4887    0.0000 C   0  0
   -7.8020    2.4887    0.0000 O   0  0
   -9.0990    0.7364    0.0000 C   0  0  2  0  0  0
   -9.0994   -0.7644    0.0000 C   0  0
  -10.3990   -1.5153    0.0000 C   0  0
  -10.3994   -3.0161    0.0000 C   0  0
   -9.1004   -3.7661    0.0000 N   0  0
  -11.6982   -3.7665    0.0000 O   0  0
  -10.4003    1.4841    0.0000 N   0  0
  -11.6990    0.7318    0.0000 C   0  0
  -11.6963   -0.7681    0.0000 O   0  0
  -13.0003    1.4796    0.0000 C   0  0  2  0  0  0
  -13.0060    2.9804    0.0000 C   0  0
  -14.3081    3.7267    0.0000 C   0  0
  -14.3138    5.2267    0.0000 C   0  0
  -15.1724    3.2237    0.0000 C   0  0
  -14.2989    0.7273    0.0000 N   0  0
  -15.6002    1.4750    0.0000 C   0  0
  -15.6020    2.4750    0.0000 O   0  0
  -16.8989    0.7228    0.0000 C   0  0  2  0  0  0
  -16.8994   -0.7781    0.0000 C   0  0
  -18.1989   -1.5289    0.0000 C   0  0
  -18.1994   -3.0297    0.0000 C   0  0
  -19.4989   -3.7805    0.0000 C   0  0
  -19.4993   -5.2805    0.0000 N   0  0
  -18.2002    1.4705    0.0000 N   0  0
  -19.4989    0.7182    0.0000 C   0  0
  -19.4963   -0.7818    0.0000 O   0  0
  -20.8002    1.4660    0.0000 C   0  0  2  0  0  0
  -20.8059    2.9668    0.0000 C   0  0
  -22.1073    3.7127    0.0000 O   0  0
  -22.0989    0.7137    0.0000 N   0  0
  -23.4002    1.4614    0.0000 C   0  0
  -23.4028    2.9614    0.0000 O   0  0
  -24.6988    0.7092    0.0000 C   0  0  2  0  0  0
  -24.6993   -0.7917    0.0000 C   0  0
  -25.9981   -1.5421    0.0000 O   0  0
  -26.0001    1.4569    0.0000 N   0  0
  -27.2988    0.7046    0.0000 C   0  0
  -27.2962   -0.7954    0.0000 O   0  0
  -28.6001    1.4523    0.0000 C   0  0  2  0  0  0
  -29.8988    0.7001    0.0000 C   0  0
  -31.2001    1.4478    0.0000 C   0  0
  -32.5515    0.8268    0.0000 C   0  0
  -33.5552    1.9415    0.0000 N   0  0
  -32.8052    3.2405    0.0000 C   0  0
  -31.3380    2.9287    0.0000 N   0  0
  -28.5996    2.9532    0.0000 N   0  0
  -27.3001    3.7040    0.0000 C   0  0
  -26.0011    2.9540    0.0000 C   0  0
  -27.2997    5.2040    0.0000 O   0  0
   -1.2990   -0.7500    0.0000 C   0  0
    0.0000   -1.5000    0.0000 C   0  0
  1  2  1  0
  2  3  1  0
  3  4  1  0
  4  5  1  0
  3  6  1  0
  6  7  2  0
  6  8  1  0
  8  9  1  0
  9 10  1  0
 10 11  2  0
 11 12  1  0
 12 13  2  0
 13 14  1  0
 14 15  1  0
 15 16  2  0
 15 17  1  0
 17 18  1  1
 18 19  1  0
 19 20  1  0
 19 21  1  0
 17 22  1  0
 22 23  1  0
 23 24  2  0
 23 25  1  0
 25 26  1  6
 26 27  1  0
 27 28  1  0
 28 29  1  0
 28 30  2  0
 25 31  1  0
 31 32  1  0
 32 33  2  0
 32 34  1  0
 34 35  1  1
 35 36  1  0
 36 37  1  0
 36 38  1  0
 34 39  1  0
 39 40  1  0
 40 41  2  0
 40 42  1  0
 42 43  1  6
 43 44  1  0
 44 45  1  0
 45 46  1  0
 46 47  1  0
 42 48  1  0
 48 49  1  0
 49 50  2  0
 49 51  1  0
 51 52  1  1
 52 53  1  0
 51 54  1  0
 54 55  1  0
 55 56  2  0
 55 57  1  0
 57 58  1  6
 58 59  1  0
 57 60  1  0
 60 61  1  0
 61 62  2  0
 61 63  1  0
 63 64  1  6
 64 65  1  0
 65 66  2  0
 66 67  1  0
 67 68  1  0
 68 69  2  0
 69 65  1  0
 63 70  1  0
 70 71  1  0
 71 72  1  0
 71 73  2  0
 13 74  1  0
 74 75  2  0
 75 10  1  0
M  END
> <assay_chembl_id>
CHEMBL4629236

> <assay_description>
Antiproliferative activity against human LNCAP cells assessed as reduction in cell viability after 24 hrs in presence of 1 uM CuSO4 by resazurin dye based assay

> <document_journal>
Bioorg Med Chem Lett

> <molecule_chembl_id>
CHEMBL4632808

> <standard_value>
770

> <IC50_uM>
0.77

> <Activity>
Yes

> <Canonical_Smiles>
CCN(CC)C(=S)SCc1ccc(NC(=O)[C@H](CC(C)C)NC(=O)[C@H](CCC(N)=O)NC(=O)[C@H](CC(C)C)NC(=O)[C@H](CCCCN)NC(=O)[C@H](CO)NC(=O)[C@H](CO)NC(=O)[C@H](Cc2c[nH]cn2)NC(C)=O)cc1

$$$$

  SciTegic03142313312D

 50 57  0  0  1  0            999 V2000
    1.1937   -5.8127    0.0000 C   0  0
    0.7485   -4.3803    0.0000 C   0  0
    0.2851   -2.9666    0.0000 C   0  0  2  0  0  0
   -0.6873   -2.7330    0.0000 O   0  0
    1.7758   -3.1329    0.0000 C   0  0
    2.3947   -1.7666    0.0000 C   0  0
    1.2990   -0.7500    0.0000 C   0  0  1  0  0  0
    1.2990    0.7500    0.0000 C   0  0  2  0  0  0
    2.5981    1.5000    0.0000 C   0  0
    2.5981    3.0000    0.0000 C   0  0
    1.2990    3.7500    0.0000 C   0  0
    1.2990    5.2500    0.0000 C   0  0
    0.0000    6.0000    0.0000 C   0  0
    0.0030    7.5008    0.0000 O   0  0
    1.3038    8.2494    0.0000 C   0  0
    2.6016    7.4972    0.0000 C   0  0
    1.3069    9.7494    0.0000 O   0  0
   -1.2991    5.2500    0.0000 C   0  0
   -2.5988    6.0004    0.0000 N   0  0
   -2.6013    7.5004    0.0000 C   0  0
   -3.9015    8.2483    0.0000 C   0  0
   -5.1993    7.4963    0.0000 N   0  0
   -6.5018    8.2419    0.0000 C   0  0
   -6.5068    9.7419    0.0000 O   0  0
   -7.7993    7.4876    0.0000 C   0  0  2  0  0  0
   -7.9297    6.0060    0.0000 C   0  0
   -9.3953    5.6867    0.0000 C   0  0
  -10.1519    6.9820    0.0000 C   0  0
   -9.1538    8.1017    0.0000 N   0  0
   -9.4646    9.5674    0.0000 C   0  0
   -8.3490   10.5701    0.0000 O   0  0
  -10.8914   10.0328    0.0000 C   0  0
  -11.2046   11.4998    0.0000 C   0  0
  -12.6316   11.9621    0.0000 C   0  0
  -13.7454   10.9574    0.0000 C   0  0
  -15.1724   11.4197    0.0000 C   0  0
  -16.2863   10.4151    0.0000 C   0  0
  -15.9731    8.9481    0.0000 C   0  0
  -14.5461    8.4858    0.0000 C   0  0
  -13.4323    9.4905    0.0000 C   0  0
  -12.0053    9.0282    0.0000 N   0  0
   -5.1969    5.9963    0.0000 C   0  0
   -3.8967    5.2483    0.0000 C   0  0
   -1.2991    3.7500    0.0000 C   0  0
    0.0000    3.0000    0.0000 C   0  0
    0.0000    1.5000    0.0000 C   0  0  1  0  0  0
   -1.2990    0.7500    0.0000 C   0  0
   -1.2990   -0.7500    0.0000 C   0  0
    0.0000   -1.5000    0.0000 C   0  0  2  0  0  0
   -0.8141   -2.0807    0.0000 C   0  0
  1  2  3  0
  2  3  1  0
  3  4  1  6
  3  5  1  0
  5  6  1  0
  7  6  1  6
  7  8  1  0
  8  9  1  1
  9 10  1  0
 10 11  1  0
 11 12  2  0
 12 13  1  0
 13 14  1  0
 14 15  1  0
 15 16  1  0
 15 17  2  0
 13 18  2  0
 18 19  1  0
 19 20  1  0
 20 21  1  0
 21 22  1  0
 22 23  1  0
 23 24  2  0
 25 23  1  6
 25 26  1  0
 26 27  1  0
 27 28  1  0
 28 29  1  0
 29 25  1  0
 29 30  1  0
 30 31  2  0
 30 32  1  0
 32 33  2  0
 33 34  1  0
 34 35  2  0
 35 36  1  0
 36 37  2  0
 37 38  1  0
 38 39  2  0
 39 40  1  0
 40 35  1  0
 40 41  2  0
 41 32  1  0
 22 42  1  0
 42 43  1  0
 43 19  1  0
 18 44  1  0
 44 45  2  0
 45 11  1  0
 45 46  1  0
 46  8  1  0
 46 47  1  6
 47 48  1  0
 48 49  1  0
 49  7  1  0
 49  3  1  0
 49 50  1  6
M  END
> <assay_chembl_id>
CHEMBL4683198

> <assay_description>
Antiproliferative activity against human LNCaP cells assessed as reduction in cell viability after 72 hrs by MTS assay

> <document_journal>
Eur J Med Chem

> <molecule_chembl_id>
CHEMBL4745909

> <standard_value>
800

> <IC50_uM>
0.8

> <Activity>
Yes

> <Canonical_Smiles>
C#C[C@]1(O)CC[C@H]2[C@@H]3CCc4cc(OC(C)=O)c(N5CCN(C(=O)[C@@H]6CCCN6C(=O)c6ccc7ccccc7n6)CC5)cc4[C@H]3CC[C@@]21C

$$$$

  SciTegic03142313312D

 51 58  0  0  1  0            999 V2000
    1.1937   -5.8127    0.0000 C   0  0
    0.7485   -4.3803    0.0000 C   0  0
    0.2851   -2.9666    0.0000 C   0  0  2  0  0  0
   -0.6873   -2.7330    0.0000 O   0  0
    1.7758   -3.1329    0.0000 C   0  0
    2.3947   -1.7666    0.0000 C   0  0
    1.2990   -0.7500    0.0000 C   0  0  1  0  0  0
    1.2990    0.7500    0.0000 C   0  0  2  0  0  0
    2.5981    1.5000    0.0000 C   0  0
    2.5981    3.0000    0.0000 C   0  0
    1.2990    3.7500    0.0000 C   0  0
    1.2990    5.2500    0.0000 C   0  0
    0.0000    6.0000    0.0000 C   0  0
    0.0030    7.5008    0.0000 O   0  0
    1.3038    8.2494    0.0000 S   0  0
    2.6016    7.4972    0.0000 N   0  0
    1.3069    9.7494    0.0000 O   0  0
    2.6043    8.9970    0.0000 O   0  0
   -1.2991    5.2500    0.0000 C   0  0
   -2.5988    6.0004    0.0000 N   0  0
   -2.6013    7.5004    0.0000 C   0  0
   -3.9015    8.2483    0.0000 C   0  0
   -5.1993    7.4963    0.0000 N   0  0
   -6.5018    8.2419    0.0000 C   0  0
   -6.5068    9.7419    0.0000 O   0  0
   -7.7993    7.4876    0.0000 C   0  0  2  0  0  0
   -7.9297    6.0060    0.0000 C   0  0
   -9.3953    5.6867    0.0000 C   0  0
  -10.1519    6.9820    0.0000 C   0  0
   -9.1538    8.1017    0.0000 N   0  0
   -9.4646    9.5674    0.0000 C   0  0
   -8.3490   10.5701    0.0000 O   0  0
  -10.8914   10.0328    0.0000 C   0  0
  -11.2046   11.4998    0.0000 C   0  0
  -12.6316   11.9621    0.0000 C   0  0
  -13.7454   10.9574    0.0000 C   0  0
  -15.1724   11.4197    0.0000 C   0  0
  -16.2863   10.4151    0.0000 C   0  0
  -15.9731    8.9481    0.0000 C   0  0
  -14.5461    8.4858    0.0000 C   0  0
  -13.4323    9.4905    0.0000 C   0  0
  -12.0053    9.0282    0.0000 N   0  0
   -5.1969    5.9963    0.0000 C   0  0
   -3.8967    5.2483    0.0000 C   0  0
   -1.2991    3.7500    0.0000 C   0  0
    0.0000    3.0000    0.0000 C   0  0
    0.0000    1.5000    0.0000 C   0  0  1  0  0  0
   -1.2990    0.7500    0.0000 C   0  0
   -1.2990   -0.7500    0.0000 C   0  0
    0.0000   -1.5000    0.0000 C   0  0  2  0  0  0
   -0.8141   -2.0807    0.0000 C   0  0
  1  2  3  0
  2  3  1  0
  3  4  1  6
  3  5  1  0
  5  6  1  0
  7  6  1  6
  7  8  1  0
  8  9  1  1
  9 10  1  0
 10 11  1  0
 11 12  2  0
 12 13  1  0
 13 14  1  0
 14 15  1  0
 15 16  1  0
 15 17  2  0
 15 18  2  0
 13 19  2  0
 19 20  1  0
 20 21  1  0
 21 22  1  0
 22 23  1  0
 23 24  1  0
 24 25  2  0
 26 24  1  6
 26 27  1  0
 27 28  1  0
 28 29  1  0
 29 30  1  0
 30 26  1  0
 30 31  1  0
 31 32  2  0
 31 33  1  0
 33 34  2  0
 34 35  1  0
 35 36  2  0
 36 37  1  0
 37 38  2  0
 38 39  1  0
 39 40  2  0
 40 41  1  0
 41 36  1  0
 41 42  2  0
 42 33  1  0
 23 43  1  0
 43 44  1  0
 44 20  1  0
 19 45  1  0
 45 46  2  0
 46 11  1  0
 46 47  1  0
 47  8  1  0
 47 48  1  6
 48 49  1  0
 49 50  1  0
 50  7  1  0
 50  3  1  0
 50 51  1  6
M  END
> <assay_chembl_id>
CHEMBL4683198

> <assay_description>
Antiproliferative activity against human LNCaP cells assessed as reduction in cell viability after 72 hrs by MTS assay

> <document_journal>
Eur J Med Chem

> <molecule_chembl_id>
CHEMBL4785329

> <standard_value>
900

> <IC50_uM>
0.9

> <Activity>
Yes

> <Canonical_Smiles>
C#C[C@]1(O)CC[C@H]2[C@@H]3CCc4cc(OS(N)(=O)=O)c(N5CCN(C(=O)[C@@H]6CCCN6C(=O)c6ccc7ccccc7n6)CC5)cc4[C@H]3CC[C@@]21C

$$$$

  SciTegic03142313312D

 51 58  0  0  1  0            999 V2000
    1.1937   -5.8127    0.0000 C   0  0
    0.7485   -4.3803    0.0000 C   0  0
    0.2851   -2.9666    0.0000 C   0  0  2  0  0  0
   -0.6873   -2.7330    0.0000 O   0  0
    1.7758   -3.1329    0.0000 C   0  0
    2.3947   -1.7666    0.0000 C   0  0
    1.2990   -0.7500    0.0000 C   0  0  1  0  0  0
    1.2990    0.7500    0.0000 C   0  0  2  0  0  0
    2.5981    1.5000    0.0000 C   0  0
    2.5981    3.0000    0.0000 C   0  0
    1.2990    3.7500    0.0000 C   0  0
    1.2990    5.2500    0.0000 C   0  0
    0.0000    6.0000    0.0000 C   0  0
    0.0030    7.5008    0.0000 O   0  0
    1.3038    8.2494    0.0000 P   0  0
    1.3069    9.7494    0.0000 O   0  0
    2.6016    7.4972    0.0000 O   0  0
    2.6043    8.9970    0.0000 O   0  0
   -1.2991    5.2500    0.0000 C   0  0
   -2.5988    6.0004    0.0000 N   0  0
   -2.6013    7.5004    0.0000 C   0  0
   -3.9015    8.2483    0.0000 C   0  0
   -5.1993    7.4963    0.0000 N   0  0
   -6.5018    8.2419    0.0000 C   0  0
   -6.5068    9.7419    0.0000 O   0  0
   -7.7993    7.4876    0.0000 C   0  0  2  0  0  0
   -7.9297    6.0060    0.0000 C   0  0
   -9.3953    5.6867    0.0000 C   0  0
  -10.1519    6.9820    0.0000 C   0  0
   -9.1538    8.1017    0.0000 N   0  0
   -9.4646    9.5674    0.0000 C   0  0
   -8.3490   10.5701    0.0000 O   0  0
  -10.8914   10.0328    0.0000 C   0  0
  -11.2046   11.4998    0.0000 C   0  0
  -12.6316   11.9621    0.0000 C   0  0
  -13.7454   10.9574    0.0000 C   0  0
  -15.1724   11.4197    0.0000 C   0  0
  -16.2863   10.4151    0.0000 C   0  0
  -15.9731    8.9481    0.0000 C   0  0
  -14.5461    8.4858    0.0000 C   0  0
  -13.4323    9.4905    0.0000 C   0  0
  -12.0053    9.0282    0.0000 N   0  0
   -5.1969    5.9963    0.0000 C   0  0
   -3.8967    5.2483    0.0000 C   0  0
   -1.2991    3.7500    0.0000 C   0  0
    0.0000    3.0000    0.0000 C   0  0
    0.0000    1.5000    0.0000 C   0  0  1  0  0  0
   -1.2990    0.7500    0.0000 C   0  0
   -1.2990   -0.7500    0.0000 C   0  0
    0.0000   -1.5000    0.0000 C   0  0  2  0  0  0
   -0.8141   -2.0807    0.0000 C   0  0
  1  2  3  0
  2  3  1  0
  3  4  1  6
  3  5  1  0
  5  6  1  0
  7  6  1  6
  7  8  1  0
  8  9  1  1
  9 10  1  0
 10 11  1  0
 11 12  2  0
 12 13  1  0
 13 14  1  0
 14 15  1  0
 15 16  2  0
 15 17  1  0
 15 18  1  0
 13 19  2  0
 19 20  1  0
 20 21  1  0
 21 22  1  0
 22 23  1  0
 23 24  1  0
 24 25  2  0
 26 24  1  6
 26 27  1  0
 27 28  1  0
 28 29  1  0
 29 30  1  0
 30 26  1  0
 30 31  1  0
 31 32  2  0
 31 33  1  0
 33 34  2  0
 34 35  1  0
 35 36  2  0
 36 37  1  0
 37 38  2  0
 38 39  1  0
 39 40  2  0
 40 41  1  0
 41 36  1  0
 41 42  2  0
 42 33  1  0
 23 43  1  0
 43 44  1  0
 44 20  1  0
 19 45  1  0
 45 46  2  0
 46 11  1  0
 46 47  1  0
 47  8  1  0
 47 48  1  6
 48 49  1  0
 49 50  1  0
 50  7  1  0
 50  3  1  0
 50 51  1  6
M  END
> <assay_chembl_id>
CHEMBL4683198

> <assay_description>
Antiproliferative activity against human LNCaP cells assessed as reduction in cell viability after 72 hrs by MTS assay

> <document_journal>
Eur J Med Chem

> <molecule_chembl_id>
CHEMBL4798007

> <standard_value>
600

> <IC50_uM>
0.6

> <Activity>
Yes

> <Canonical_Smiles>
C#C[C@]1(O)CC[C@H]2[C@@H]3CCc4cc(OP(=O)(O)O)c(N5CCN(C(=O)[C@@H]6CCCN6C(=O)c6ccc7ccccc7n6)CC5)cc4[C@H]3CC[C@@]21C

$$$$

  SciTegic03142313312D

 50 57  0  0  1  0            999 V2000
    1.1937   -5.8127    0.0000 C   0  0
    0.7485   -4.3803    0.0000 C   0  0
    0.2851   -2.9666    0.0000 C   0  0  2  0  0  0
   -0.6873   -2.7330    0.0000 O   0  0
    1.7758   -3.1329    0.0000 C   0  0
    2.3947   -1.7666    0.0000 C   0  0
    1.2990   -0.7500    0.0000 C   0  0  1  0  0  0
    1.2990    0.7500    0.0000 C   0  0  2  0  0  0
    2.5981    1.5000    0.0000 C   0  0
    2.5981    3.0000    0.0000 C   0  0
    1.2990    3.7500    0.0000 C   0  0
    1.2990    5.2500    0.0000 C   0  0
    0.0000    6.0000    0.0000 C   0  0
    0.0030    7.5008    0.0000 O   0  0
    1.3031    8.2490    0.0000 C   0  0
   -1.2991    5.2500    0.0000 C   0  0
   -2.6004    5.9977    0.0000 C   0  0
   -2.6030    7.4977    0.0000 O   0  0
   -3.8991    5.2454    0.0000 N   0  0
   -5.2008    5.9909    0.0000 C   0  0
   -6.4972    5.2364    0.0000 C   0  0
   -6.4920    3.7364    0.0000 N   0  0
   -7.7876    2.9788    0.0000 C   0  0
   -9.0905    3.7220    0.0000 O   0  0
   -7.7802    1.4780    0.0000 C   0  0  2  0  0  0
   -6.5608    0.6266    0.0000 C   0  0
   -7.0144   -0.8032    0.0000 C   0  0
   -8.5143   -0.8136    0.0000 C   0  0
   -8.9878    0.6098    0.0000 N   0  0
  -10.4132    1.0708    0.0000 C   0  0
  -10.7266    2.5377    0.0000 O   0  0
  -11.5279    0.0658    0.0000 C   0  0
  -12.9558    0.5253    0.0000 C   0  0
  -14.0678   -0.4814    0.0000 C   0  0
  -13.7519   -1.9478    0.0000 C   0  0
  -14.8638   -2.9545    0.0000 C   0  0
  -14.5480   -4.4209    0.0000 C   0  0
  -13.1201   -4.8805    0.0000 C   0  0
  -12.0081   -3.8737    0.0000 C   0  0
  -12.3240   -2.4074    0.0000 C   0  0
  -11.2121   -1.4006    0.0000 N   0  0
   -5.1904    2.9909    0.0000 C   0  0
   -3.8939    3.7454    0.0000 C   0  0
   -1.2991    3.7500    0.0000 C   0  0
    0.0000    3.0000    0.0000 C   0  0
    0.0000    1.5000    0.0000 C   0  0  1  0  0  0
   -1.2990    0.7500    0.0000 C   0  0
   -1.2990   -0.7500    0.0000 C   0  0
    0.0000   -1.5000    0.0000 C   0  0  2  0  0  0
   -0.8141   -2.0807    0.0000 C   0  0
  1  2  3  0
  2  3  1  0
  3  4  1  6
  3  5  1  0
  5  6  1  0
  7  6  1  6
  7  8  1  0
  8  9  1  1
  9 10  1  0
 10 11  1  0
 11 12  2  0
 12 13  1  0
 13 14  1  0
 14 15  1  0
 13 16  2  0
 16 17  1  0
 17 18  2  0
 17 19  1  0
 19 20  1  0
 20 21  1  0
 21 22  1  0
 22 23  1  0
 23 24  2  0
 25 23  1  6
 25 26  1  0
 26 27  1  0
 27 28  1  0
 28 29  1  0
 29 25  1  0
 29 30  1  0
 30 31  2  0
 30 32  1  0
 32 33  2  0
 33 34  1  0
 34 35  2  0
 35 36  1  0
 36 37  2  0
 37 38  1  0
 38 39  2  0
 39 40  1  0
 40 35  1  0
 40 41  2  0
 41 32  1  0
 22 42  1  0
 42 43  1  0
 43 19  1  0
 16 44  1  0
 44 45  2  0
 45 11  1  0
 45 46  1  0
 46  8  1  0
 46 47  1  6
 47 48  1  0
 48 49  1  0
 49  7  1  0
 49  3  1  0
 49 50  1  6
M  END
> <assay_chembl_id>
CHEMBL4683198

> <assay_description>
Antiproliferative activity against human LNCaP cells assessed as reduction in cell viability after 72 hrs by MTS assay

> <document_journal>
Eur J Med Chem

> <molecule_chembl_id>
CHEMBL4798881

> <standard_value>
800

> <IC50_uM>
0.8

> <Activity>
Yes

> <Canonical_Smiles>
C#C[C@]1(O)CC[C@H]2[C@@H]3CCc4cc(OC)c(C(=O)N5CCN(C(=O)[C@@H]6CCCN6C(=O)c6ccc7ccccc7n6)CC5)cc4[C@H]3CC[C@@]21C

$$$$

  SciTegic03142313312D

 42 47  0  0  1  0            999 V2000
    3.8983   -0.7566    0.0000 C   0  0
    2.5973   -1.5031    0.0000 C   0  0
    1.2990   -0.7500    0.0000 C   0  0  2  0  0  0
    1.2990    0.7500    0.0000 C   0  0
    2.4133    1.7530    0.0000 N   0  0
    1.8032    3.1233    0.0000 N   0  0
    0.3114    2.9665    0.0000 C   0  0
   -0.6924    4.0811    0.0000 C   0  0
    0.0000    1.5000    0.0000 N   0  0
   -1.2990    0.7500    0.0000 C   0  0
   -2.5981    1.5000    0.0000 C   0  0
   -3.8971    0.7500    0.0000 N   0  0
   -3.8971   -0.7500    0.0000 C   0  0
   -5.1953   -1.5031    0.0000 N   0  0
   -5.1932   -3.0039    0.0000 C   0  0
   -3.8915   -3.7495    0.0000 C   0  0
   -3.8863   -5.2495    0.0000 C   0  0
   -5.1828   -6.0040    0.0000 C   0  0
   -5.1807   -7.5048    0.0000 C   0  0
   -3.8803   -8.2526    0.0000 O   0  0
   -6.4789   -8.2579    0.0000 N   0  0
   -6.4768   -9.7587    0.0000 C   0  0
   -7.7732  -10.5133    0.0000 C   0  0
   -7.7681  -12.0133    0.0000 C   0  0
   -6.4664  -12.7588    0.0000 N   0  0
   -6.4613  -14.2588    0.0000 C   0  0
   -5.1700  -12.0043    0.0000 C   0  0
   -5.1752  -10.5044    0.0000 C   0  0
   -6.4844   -5.2585    0.0000 C   0  0
   -6.4896   -3.7585    0.0000 C   0  0
   -7.7935   -3.0153    0.0000 O   0  0
   -9.0888   -3.7717    0.0000 C   0  0
   -2.5981   -1.5000    0.0000 N   0  0
   -1.2990   -0.7500    0.0000 C   0  0
    0.0000   -1.5000    0.0000 N   0  0
    0.0031   -3.0008    0.0000 C   0  0
    1.3039   -3.7494    0.0000 C   0  0
    1.3092   -5.2494    0.0000 C   0  0
    2.6108   -5.9949    0.0000 C   0  0
    3.9073   -5.2404    0.0000 C   0  0
    3.9021   -3.7404    0.0000 C   0  0
    2.6004   -2.9949    0.0000 C   0  0
  1  2  1  0
  3  2  1  1
  3  4  1  0
  4  5  2  0
  5  6  1  0
  6  7  2  0
  7  8  1  0
  7  9  1  0
  9  4  1  0
  9 10  1  0
 10 11  2  0
 11 12  1  0
 12 13  2  0
 13 14  1  0
 14 15  1  0
 15 16  2  0
 16 17  1  0
 17 18  2  0
 18 19  1  0
 19 20  2  0
 19 21  1  0
 21 22  1  0
 22 23  1  0
 23 24  1  0
 24 25  1  0
 25 26  1  0
 25 27  1  0
 27 28  1  0
 28 22  1  0
 18 29  1  0
 29 30  2  0
 30 15  1  0
 30 31  1  0
 31 32  1  0
 13 33  1  0
 33 34  2  0
 34 10  1  0
 34 35  1  0
 35  3  1  0
 35 36  1  0
 36 37  1  0
 37 38  1  0
 38 39  1  0
 39 40  1  0
 40 41  1  0
 41 42  1  0
 42 37  1  0
M  END
> <assay_chembl_id>
CHEMBL4685261

> <assay_description>
Cytotoxicity against human LNCaP cells assessed as reduction in cell viability after 72 hrs by MTT assay

> <document_journal>
Eur J Med Chem

> <molecule_chembl_id>
CHEMBL4747491

> <standard_value>
140

> <IC50_uM>
0.14

> <Activity>
Yes

> <Canonical_Smiles>
CC[C@@H]1c2nnc(C)n2-c2cnc(Nc3ccc(C(=O)NC4CCN(C)CC4)cc3OC)nc2N1CC1CCCCC1

$$$$

  SciTegic03142313312D

 45 50  0  0  1  0            999 V2000
    1.2648   -9.7488    0.0000 C   0  0
    1.2731   -8.2489    0.0000 C   0  0
    2.5765   -7.5048    0.0000 O   0  0
    2.5847   -6.0040    0.0000 C   0  0
    3.8864   -5.2585    0.0000 C   0  0
    3.8915   -3.7585    0.0000 C   0  0
    2.5951   -3.0039    0.0000 C   0  0
    2.5973   -1.5031    0.0000 C   0  0
    1.2990   -0.7500    0.0000 N   0  0
    1.2990    0.7500    0.0000 C   0  0
    2.5981    1.5000    0.0000 N   0  0
    2.5981    3.0000    0.0000 C   0  0
    3.8963    3.7531    0.0000 N   0  0
    3.8941    5.2539    0.0000 C   0  0
    2.5925    5.9995    0.0000 C   0  0
    2.5873    7.4995    0.0000 C   0  0
    3.8837    8.2540    0.0000 C   0  0
    3.8816    9.7549    0.0000 C   0  0
    2.5813   10.5026    0.0000 O   0  0
    5.1798   10.5079    0.0000 N   0  0
    5.1777   12.0087    0.0000 C   0  0
    6.4741   12.7633    0.0000 C   0  0
    6.4690   14.2633    0.0000 C   0  0
    5.1674   15.0088    0.0000 N   0  0
    5.1622   16.5088    0.0000 C   0  0
    3.8709   14.2544    0.0000 C   0  0
    3.8761   12.7544    0.0000 C   0  0
    5.1853    7.5085    0.0000 C   0  0
    5.1905    6.0085    0.0000 C   0  0
    6.4944    5.2653    0.0000 O   0  0
    7.7898    6.0217    0.0000 C   0  0
    1.2990    3.7500    0.0000 N   0  0
    0.0000    3.0000    0.0000 C   0  0
    0.0000    1.5000    0.0000 C   0  0
   -1.2990    0.7500    0.0000 N   0  0
   -2.7248    1.2135    0.0000 C   0  0
   -3.1882    2.6401    0.0000 C   0  0
   -3.6065    0.0000    0.0000 N   0  0
   -2.7248   -1.2135    0.0000 N   0  0
   -1.2990   -0.7500    0.0000 C   0  0
    0.0000   -1.5000    0.0000 C   0  0  1  0  0  0
   -0.0031   -3.0008    0.0000 C   0  0
   -1.3032   -3.7490    0.0000 C   0  0
    1.2935   -3.7495    0.0000 C   0  0
    1.2883   -5.2495    0.0000 C   0  0
  1  2  1  0
  2  3  1  0
  3  4  1  0
  4  5  2  0
  5  6  1  0
  6  7  2  0
  7  8  1  0
  8  9  1  0
  9 10  1  0
 10 11  2  0
 11 12  1  0
 12 13  1  0
 13 14  1  0
 14 15  2  0
 15 16  1  0
 16 17  2  0
 17 18  1  0
 18 19  2  0
 18 20  1  0
 20 21  1  0
 21 22  1  0
 22 23  1  0
 23 24  1  0
 24 25  1  0
 24 26  1  0
 26 27  1  0
 27 21  1  0
 17 28  1  0
 28 29  2  0
 29 14  1  0
 29 30  1  0
 30 31  1  0
 12 32  2  0
 32 33  1  0
 33 34  2  0
 34 10  1  0
 34 35  1  0
 35 36  1  0
 36 37  1  0
 36 38  2  0
 38 39  1  0
 39 40  2  0
 40 35  1  0
 40 41  1  0
 41  9  1  0
 41 42  1  6
 42 43  1  0
  7 44  1  0
 44 45  2  0
 45  4  1  0
M  END
> <assay_chembl_id>
CHEMBL4685261

> <assay_description>
Cytotoxicity against human LNCaP cells assessed as reduction in cell viability after 72 hrs by MTT assay

> <document_journal>
Eur J Med Chem

> <molecule_chembl_id>
CHEMBL4794106

> <standard_value>
440

> <IC50_uM>
0.44

> <Activity>
Yes

> <Canonical_Smiles>
CCOc1ccc(CN2c3nc(Nc4ccc(C(=O)NC5CCN(C)CC5)cc4OC)ncc3-n3c(C)nnc3[C@H]2CC)cc1

$$$$

  SciTegic03142313312D

 41 46  0  0  1  0            999 V2000
    2.5958   -2.5031    0.0000 C   0  0
    2.5973   -1.5031    0.0000 C   0  0
    1.2990   -0.7500    0.0000 C   0  0  2  0  0  0
    1.2990    0.7500    0.0000 C   0  0
    2.4133    1.7530    0.0000 N   0  0
    1.8032    3.1233    0.0000 N   0  0
    0.3114    2.9665    0.0000 C   0  0
   -0.6924    4.0811    0.0000 C   0  0
    0.0000    1.5000    0.0000 N   0  0
   -1.2990    0.7500    0.0000 C   0  0
   -2.5981    1.5000    0.0000 C   0  0
   -3.8971    0.7500    0.0000 N   0  0
   -3.8971   -0.7500    0.0000 C   0  0
   -5.1953   -1.5031    0.0000 N   0  0
   -5.1932   -3.0039    0.0000 C   0  0
   -3.8915   -3.7495    0.0000 C   0  0
   -3.8863   -5.2495    0.0000 C   0  0
   -5.1828   -6.0040    0.0000 C   0  0
   -5.1807   -7.5048    0.0000 C   0  0
   -3.8803   -8.2526    0.0000 O   0  0
   -6.4789   -8.2579    0.0000 N   0  0
   -6.4768   -9.7587    0.0000 C   0  0
   -7.7732  -10.5133    0.0000 C   0  0
   -7.7681  -12.0133    0.0000 C   0  0
   -6.4664  -12.7588    0.0000 N   0  0
   -6.4613  -14.2588    0.0000 C   0  0
   -5.1700  -12.0043    0.0000 C   0  0
   -5.1752  -10.5044    0.0000 C   0  0
   -6.4844   -5.2585    0.0000 C   0  0
   -6.4896   -3.7585    0.0000 C   0  0
   -7.7935   -3.0153    0.0000 O   0  0
   -9.0888   -3.7717    0.0000 C   0  0
   -2.5981   -1.5000    0.0000 N   0  0
   -1.2990   -0.7500    0.0000 C   0  0
    0.0000   -1.5000    0.0000 N   0  0
    0.0031   -3.0008    0.0000 C   0  0
    1.3039   -3.7494    0.0000 C   0  0
    1.4469   -5.2297    0.0000 C   0  0
    2.9152   -5.5365    0.0000 C   0  0
    3.6607   -4.2349    0.0000 C   0  0
    2.6532   -3.1236    0.0000 S   0  0
  1  2  1  0
  3  2  1  1
  3  4  1  0
  4  5  2  0
  5  6  1  0
  6  7  2  0
  7  8  1  0
  7  9  1  0
  9  4  1  0
  9 10  1  0
 10 11  2  0
 11 12  1  0
 12 13  2  0
 13 14  1  0
 14 15  1  0
 15 16  2  0
 16 17  1  0
 17 18  2  0
 18 19  1  0
 19 20  2  0
 19 21  1  0
 21 22  1  0
 22 23  1  0
 23 24  1  0
 24 25  1  0
 25 26  1  0
 25 27  1  0
 27 28  1  0
 28 22  1  0
 18 29  1  0
 29 30  2  0
 30 15  1  0
 30 31  1  0
 31 32  1  0
 13 33  1  0
 33 34  2  0
 34 10  1  0
 34 35  1  0
 35  3  1  0
 35 36  1  0
 36 37  1  0
 37 38  2  0
 38 39  1  0
 39 40  2  0
 40 41  1  0
 41 37  1  0
M  END
> <assay_chembl_id>
CHEMBL4685261

> <assay_description>
Cytotoxicity against human LNCaP cells assessed as reduction in cell viability after 72 hrs by MTT assay

> <document_journal>
Eur J Med Chem

> <molecule_chembl_id>
CHEMBL4754471

> <standard_value>
880

> <IC50_uM>
0.88

> <Activity>
Yes

> <Canonical_Smiles>
CC[C@@H]1c2nnc(C)n2-c2cnc(Nc3ccc(C(=O)NC4CCN(C)CC4)cc3OC)nc2N1Cc1cccs1

$$$$

  SciTegic03142313312D

 41 46  0  0  1  0            999 V2000
    2.5958   -2.5031    0.0000 C   0  0
    2.5973   -1.5031    0.0000 C   0  0
    1.2990   -0.7500    0.0000 C   0  0  2  0  0  0
    1.2990    0.7500    0.0000 C   0  0
    2.4133    1.7530    0.0000 N   0  0
    1.8032    3.1233    0.0000 N   0  0
    0.3114    2.9665    0.0000 C   0  0
   -0.6924    4.0811    0.0000 C   0  0
    0.0000    1.5000    0.0000 N   0  0
   -1.2990    0.7500    0.0000 C   0  0
   -2.5981    1.5000    0.0000 C   0  0
   -3.8971    0.7500    0.0000 N   0  0
   -3.8971   -0.7500    0.0000 C   0  0
   -5.1953   -1.5031    0.0000 N   0  0
   -5.1932   -3.0039    0.0000 C   0  0
   -3.8915   -3.7495    0.0000 C   0  0
   -3.8863   -5.2495    0.0000 C   0  0
   -5.1828   -6.0040    0.0000 C   0  0
   -5.1807   -7.5048    0.0000 C   0  0
   -3.8803   -8.2526    0.0000 O   0  0
   -6.4789   -8.2579    0.0000 N   0  0
   -6.4768   -9.7587    0.0000 C   0  0
   -7.7732  -10.5133    0.0000 C   0  0
   -7.7681  -12.0133    0.0000 C   0  0
   -6.4664  -12.7588    0.0000 N   0  0
   -6.4613  -14.2588    0.0000 C   0  0
   -5.1700  -12.0043    0.0000 C   0  0
   -5.1752  -10.5044    0.0000 C   0  0
   -6.4844   -5.2585    0.0000 C   0  0
   -6.4896   -3.7585    0.0000 C   0  0
   -7.7935   -3.0153    0.0000 O   0  0
   -9.0888   -3.7717    0.0000 C   0  0
   -2.5981   -1.5000    0.0000 N   0  0
   -1.2990   -0.7500    0.0000 C   0  0
    0.0000   -1.5000    0.0000 N   0  0
    0.0031   -3.0008    0.0000 C   0  0
    1.3039   -3.7494    0.0000 C   0  0
    1.4469   -5.2297    0.0000 C   0  0
    2.9152   -5.5365    0.0000 C   0  0
    3.6607   -4.2349    0.0000 S   0  0
    2.6532   -3.1236    0.0000 C   0  0
  1  2  1  0
  3  2  1  1
  3  4  1  0
  4  5  2  0
  5  6  1  0
  6  7  2  0
  7  8  1  0
  7  9  1  0
  9  4  1  0
  9 10  1  0
 10 11  2  0
 11 12  1  0
 12 13  2  0
 13 14  1  0
 14 15  1  0
 15 16  2  0
 16 17  1  0
 17 18  2  0
 18 19  1  0
 19 20  2  0
 19 21  1  0
 21 22  1  0
 22 23  1  0
 23 24  1  0
 24 25  1  0
 25 26  1  0
 25 27  1  0
 27 28  1  0
 28 22  1  0
 18 29  1  0
 29 30  2  0
 30 15  1  0
 30 31  1  0
 31 32  1  0
 13 33  1  0
 33 34  2  0
 34 10  1  0
 34 35  1  0
 35  3  1  0
 35 36  1  0
 36 37  1  0
 37 38  1  0
 38 39  2  0
 39 40  1  0
 40 41  1  0
 41 37  2  0
M  END
> <assay_chembl_id>
CHEMBL4685261

> <assay_description>
Cytotoxicity against human LNCaP cells assessed as reduction in cell viability after 72 hrs by MTT assay

> <document_journal>
Eur J Med Chem

> <molecule_chembl_id>
CHEMBL4755667

> <standard_value>
710

> <IC50_uM>
0.71

> <Activity>
Yes

> <Canonical_Smiles>
CC[C@@H]1c2nnc(C)n2-c2cnc(Nc3ccc(C(=O)NC4CCN(C)CC4)cc3OC)nc2N1Cc1ccsc1

$$$$

  SciTegic03142313312D

 42 47  0  0  1  0            999 V2000
    3.8983   -0.7566    0.0000 C   0  0
    2.5973   -1.5031    0.0000 C   0  0
    1.2990   -0.7500    0.0000 C   0  0  2  0  0  0
    1.2990    0.7500    0.0000 C   0  0
    2.4133    1.7530    0.0000 N   0  0
    1.8032    3.1233    0.0000 N   0  0
    0.3114    2.9665    0.0000 C   0  0
   -0.6924    4.0811    0.0000 C   0  0
    0.0000    1.5000    0.0000 N   0  0
   -1.2990    0.7500    0.0000 C   0  0
   -2.5981    1.5000    0.0000 C   0  0
   -3.8971    0.7500    0.0000 N   0  0
   -3.8971   -0.7500    0.0000 C   0  0
   -5.1953   -1.5031    0.0000 N   0  0
   -5.1932   -3.0039    0.0000 C   0  0
   -3.8915   -3.7495    0.0000 C   0  0
   -3.8863   -5.2495    0.0000 C   0  0
   -5.1828   -6.0040    0.0000 C   0  0
   -5.1807   -7.5048    0.0000 C   0  0
   -3.8803   -8.2526    0.0000 O   0  0
   -6.4789   -8.2579    0.0000 N   0  0
   -6.4768   -9.7587    0.0000 N   0  0
   -7.7732  -10.5133    0.0000 C   0  0
   -7.7681  -12.0133    0.0000 C   0  0
   -6.4664  -12.7588    0.0000 N   0  0
   -6.4613  -14.2588    0.0000 C   0  0
   -5.1700  -12.0043    0.0000 C   0  0
   -5.1752  -10.5044    0.0000 C   0  0
   -6.4844   -5.2585    0.0000 C   0  0
   -6.4896   -3.7585    0.0000 C   0  0
   -7.7935   -3.0153    0.0000 O   0  0
   -9.0888   -3.7717    0.0000 C   0  0
   -2.5981   -1.5000    0.0000 N   0  0
   -1.2990   -0.7500    0.0000 C   0  0
    0.0000   -1.5000    0.0000 N   0  0
    0.0031   -3.0008    0.0000 C   0  0
    1.3039   -3.7494    0.0000 C   0  0
    1.3092   -5.2494    0.0000 C   0  0
    2.6108   -5.9949    0.0000 C   0  0
    3.9073   -5.2404    0.0000 C   0  0
    3.9021   -3.7404    0.0000 C   0  0
    2.6004   -2.9949    0.0000 C   0  0
  1  2  1  0
  3  2  1  1
  3  4  1  0
  4  5  2  0
  5  6  1  0
  6  7  2  0
  7  8  1  0
  7  9  1  0
  9  4  1  0
  9 10  1  0
 10 11  2  0
 11 12  1  0
 12 13  2  0
 13 14  1  0
 14 15  1  0
 15 16  2  0
 16 17  1  0
 17 18  2  0
 18 19  1  0
 19 20  2  0
 19 21  1  0
 21 22  1  0
 22 23  1  0
 23 24  1  0
 24 25  1  0
 25 26  1  0
 25 27  1  0
 27 28  1  0
 28 22  1  0
 18 29  1  0
 29 30  2  0
 30 15  1  0
 30 31  1  0
 31 32  1  0
 13 33  1  0
 33 34  2  0
 34 10  1  0
 34 35  1  0
 35  3  1  0
 35 36  1  0
 36 37  1  0
 37 38  1  0
 38 39  1  0
 39 40  1  0
 40 41  1  0
 41 42  1  0
 42 37  1  0
M  END
> <assay_chembl_id>
CHEMBL4685261

> <assay_description>
Cytotoxicity against human LNCaP cells assessed as reduction in cell viability after 72 hrs by MTT assay

> <document_journal>
Eur J Med Chem

> <molecule_chembl_id>
CHEMBL4749890

> <standard_value>
620

> <IC50_uM>
0.62

> <Activity>
Yes

> <Canonical_Smiles>
CC[C@@H]1c2nnc(C)n2-c2cnc(Nc3ccc(C(=O)NN4CCN(C)CC4)cc3OC)nc2N1CC1CCCCC1

$$$$

  SciTegic03142313312D

 27 30  0  0  0  0            999 V2000
    5.1496   -9.8296    0.0000 N   0  0
    4.4995   -8.4778    0.0000 C   0  0
    3.8490   -7.1253    0.0000 C   0  0
    4.6946   -5.8864    0.0000 N   0  0
    4.0445   -4.5346    0.0000 C   0  0
    2.5536   -4.4230    0.0000 C   0  0
    1.8032   -3.1233    0.0000 N   0  0
    2.4133   -1.7530    0.0000 C   0  0
    3.8805   -1.4410    0.0000 O   0  0
    1.2990   -0.7500    0.0000 C   0  0  3  0  0  0
    1.2990    0.7500    0.0000 C   0  0
    0.0000    1.5000    0.0000 C   0  0
    0.0000    3.0000    0.0000 C   0  0
   -1.2991    3.7500    0.0000 C   0  0
   -2.5981    3.0000    0.0000 C   0  0
   -2.5981    1.5000    0.0000 C   0  0
   -1.2990    0.7500    0.0000 C   0  0
   -1.2990   -0.7500    0.0000 C   0  0
    0.0000   -1.5000    0.0000 N   0  0
    0.3114   -2.9665    0.0000 C   0  0
   -0.6923   -4.0811    0.0000 S   0  0
    1.7031   -5.6606    0.0000 C   0  0
    2.3532   -7.0124    0.0000 C   0  0
    1.5071   -8.2520    0.0000 C   0  0
    0.0113   -8.1401    0.0000 F   0  0
    2.1577   -9.6036    0.0000 F   0  0
    0.6621   -9.4913    0.0000 F   0  0
  1  2  3  0
  2  3  1  0
  3  4  2  0
  4  5  1  0
  5  6  2  0
  6  7  1  0
  7  8  1  0
  8  9  2  0
  8 10  1  0
 10 11  1  4
 11 12  1  0
 12 13  2  0
 13 14  1  0
 14 15  2  0
 15 16  1  0
 16 17  2  0
 17 12  1  0
 17 18  1  0
 18 19  1  0
 19 10  1  0
 19 20  1  0
 20  7  1  0
 20 21  2  0
  6 22  1  0
 22 23  2  0
 23  3  1  0
 23 24  1  0
 24 25  1  0
 24 26  1  0
 24 27  1  0
M  END
> <assay_chembl_id>
CHEMBL4686001

> <assay_description>
Antiproliferative activity against human LNCaP cells assessed as reduction in cel viability after 72 hrs by MTT assay

> <document_journal>
Eur J Med Chem

> <molecule_chembl_id>
CHEMBL4741896

> <standard_value>
21600

> <IC50_uM>
21.6

> <Activity>
No

> <Canonical_Smiles>
N#Cc1ncc(N2C(=O)C3Cc4ccccc4CN3C2=S)cc1C(F)(F)F

$$$$

  SciTegic03142313312D

 31 34  0  0  0  0            999 V2000
    2.5951   -3.0031    0.0000 C   0  0
    2.5973   -1.5031    0.0000 O   0  0
    1.2990   -0.7500    0.0000 C   0  0
    1.2990    0.7500    0.0000 C   0  0
    2.5981    1.5000    0.0000 Br  0  0
    0.0000    1.5000    0.0000 C   0  0
   -1.2990    0.7500    0.0000 C   0  0
   -1.2990   -0.7500    0.0000 C   0  0
    0.0000   -1.5000    0.0000 C   0  0
    0.0000   -3.0000    0.0000 Br  0  0
   -2.5981   -1.5000    0.0000 C   0  0
   -3.8971   -0.7500    0.0000 N   0  0
   -5.3229   -1.2135    0.0000 C   0  0
   -5.7863   -2.6402    0.0000 S   0  0
   -6.2045    0.0000    0.0000 N   0  0
   -7.7053    0.0000    0.0000 C   0  0
   -8.5474   -1.2353    0.0000 C   0  0
  -10.0431   -1.1225    0.0000 N   0  0
  -10.6932    0.2293    0.0000 C   0  0
  -12.1898    0.3422    0.0000 C   0  0
  -13.6856    0.4551    0.0000 N   0  0
   -9.8476    1.4682    0.0000 C   0  0
  -10.4981    2.8208    0.0000 C   0  0
  -11.9938    2.9346    0.0000 F   0  0
   -9.6521    4.0594    0.0000 F   0  0
  -11.1476    4.1729    0.0000 F   0  0
   -8.3519    1.3554    0.0000 C   0  0
   -5.3229    1.2135    0.0000 C   0  0
   -5.7863    2.6401    0.0000 O   0  0
   -3.8971    0.7500    0.0000 C   0  0  3  0  0  0
   -2.5981    1.5000    0.0000 C   0  0
  1  2  1  0
  2  3  1  0
  3  4  2  0
  4  5  1  0
  4  6  1  0
  6  7  2  0
  7  8  1  0
  8  9  2  0
  9  3  1  0
  9 10  1  0
  8 11  1  0
 11 12  1  0
 12 13  1  0
 13 14  2  0
 13 15  1  0
 15 16  1  0
 16 17  2  0
 17 18  1  0
 18 19  2  0
 19 20  1  0
 20 21  3  0
 19 22  1  0
 22 23  1  0
 23 24  1  0
 23 25  1  0
 23 26  1  0
 22 27  2  0
 27 16  1  0
 15 28  1  0
 28 29  2  0
 28 30  1  0
 30 12  1  0
 30 31  1  4
 31  7  1  0
M  END
> <assay_chembl_id>
CHEMBL4686001

> <assay_description>
Antiproliferative activity against human LNCaP cells assessed as reduction in cel viability after 72 hrs by MTT assay

> <document_journal>
Eur J Med Chem

> <molecule_chembl_id>
CHEMBL4754276

> <standard_value>
85900

> <IC50_uM>
85.9

> <Activity>
No

> <Canonical_Smiles>
COc1c(Br)cc2c(c1Br)CN1C(=S)N(c3cnc(C#N)c(C(F)(F)F)c3)C(=O)C1C2

$$$$

  SciTegic03142313312D

 30 33  0  0  0  0            999 V2000
    5.1496   -9.8296    0.0000 N   0  0
    4.4995   -8.4778    0.0000 C   0  0
    3.8490   -7.1253    0.0000 C   0  0
    4.6946   -5.8864    0.0000 N   0  0
    4.0445   -4.5346    0.0000 C   0  0
    2.5536   -4.4230    0.0000 C   0  0
    1.8032   -3.1233    0.0000 N   0  0
    2.4133   -1.7530    0.0000 C   0  0
    3.8805   -1.4410    0.0000 O   0  0
    1.2990   -0.7500    0.0000 C   0  0  3  0  0  0
    1.2990    0.7500    0.0000 C   0  0
    0.0000    1.5000    0.0000 C   0  0
    0.0000    3.0000    0.0000 C   0  0
   -1.2991    3.7500    0.0000 C   0  0
   -1.2991    5.2500    0.0000 Br  0  0
   -2.5981    3.0000    0.0000 C   0  0
   -3.8971    3.7500    0.0000 O   0  0
   -2.5981    1.5000    0.0000 C   0  0
   -3.8971    0.7500    0.0000 Br  0  0
   -1.2990    0.7500    0.0000 C   0  0
   -1.2990   -0.7500    0.0000 C   0  0
    0.0000   -1.5000    0.0000 N   0  0
    0.3114   -2.9665    0.0000 C   0  0
   -0.6923   -4.0811    0.0000 S   0  0
    1.7031   -5.6606    0.0000 C   0  0
    2.3532   -7.0124    0.0000 C   0  0
    1.5071   -8.2520    0.0000 C   0  0
    0.0113   -8.1401    0.0000 F   0  0
    2.1577   -9.6036    0.0000 F   0  0
    0.6621   -9.4913    0.0000 F   0  0
  1  2  3  0
  2  3  1  0
  3  4  2  0
  4  5  1  0
  5  6  2  0
  6  7  1  0
  7  8  1  0
  8  9  2  0
  8 10  1  0
 10 11  1  4
 11 12  1  0
 12 13  2  0
 13 14  1  0
 14 15  1  0
 14 16  2  0
 16 17  1  0
 16 18  1  0
 18 19  1  0
 18 20  2  0
 20 12  1  0
 20 21  1  0
 21 22  1  0
 22 10  1  0
 22 23  1  0
 23  7  1  0
 23 24  2  0
  6 25  1  0
 25 26  2  0
 26  3  1  0
 26 27  1  0
 27 28  1  0
 27 29  1  0
 27 30  1  0
M  END
> <assay_chembl_id>
CHEMBL4686001

> <assay_description>
Antiproliferative activity against human LNCaP cells assessed as reduction in cel viability after 72 hrs by MTT assay

> <document_journal>
Eur J Med Chem

> <molecule_chembl_id>
CHEMBL4761808

> <standard_value>
60400

> <IC50_uM>
60.4

> <Activity>
No

> <Canonical_Smiles>
N#Cc1ncc(N2C(=O)C3Cc4cc(Br)c(O)c(Br)c4CN3C2=S)cc1C(F)(F)F

$$$$

  SciTegic03142313312D

 29 32  0  0  0  0            999 V2000
    2.5951   -3.0031    0.0000 C   0  0
    2.5973   -1.5031    0.0000 O   0  0
    1.2990   -0.7500    0.0000 C   0  0
    1.2990    0.7500    0.0000 C   0  0
    0.0000    1.5000    0.0000 C   0  0
   -1.2990    0.7500    0.0000 C   0  0
   -1.2990   -0.7500    0.0000 C   0  0
    0.0000   -1.5000    0.0000 C   0  0
   -2.5981   -1.5000    0.0000 C   0  0
   -3.8971   -0.7500    0.0000 N   0  0
   -5.3229   -1.2135    0.0000 C   0  0
   -5.7863   -2.6402    0.0000 S   0  0
   -6.2045    0.0000    0.0000 N   0  0
   -7.7053    0.0000    0.0000 C   0  0
   -8.5474   -1.2353    0.0000 C   0  0
  -10.0431   -1.1225    0.0000 N   0  0
  -10.6932    0.2293    0.0000 C   0  0
  -12.1898    0.3422    0.0000 C   0  0
  -13.6856    0.4551    0.0000 N   0  0
   -9.8476    1.4682    0.0000 C   0  0
  -10.4981    2.8208    0.0000 C   0  0
  -11.9938    2.9346    0.0000 F   0  0
   -9.6521    4.0594    0.0000 F   0  0
  -11.1476    4.1729    0.0000 F   0  0
   -8.3519    1.3554    0.0000 C   0  0
   -5.3229    1.2135    0.0000 C   0  0
   -5.7863    2.6401    0.0000 O   0  0
   -3.8971    0.7500    0.0000 C   0  0  3  0  0  0
   -2.5981    1.5000    0.0000 C   0  0
  1  2  1  0
  2  3  1  0
  3  4  2  0
  4  5  1  0
  5  6  2  0
  6  7  1  0
  7  8  2  0
  8  3  1  0
  7  9  1  0
  9 10  1  0
 10 11  1  0
 11 12  2  0
 11 13  1  0
 13 14  1  0
 14 15  2  0
 15 16  1  0
 16 17  2  0
 17 18  1  0
 18 19  3  0
 17 20  1  0
 20 21  1  0
 21 22  1  0
 21 23  1  0
 21 24  1  0
 20 25  2  0
 25 14  1  0
 13 26  1  0
 26 27  2  0
 26 28  1  0
 28 10  1  0
 28 29  1  4
 29  6  1  0
M  END
> <assay_chembl_id>
CHEMBL4686001

> <assay_description>
Antiproliferative activity against human LNCaP cells assessed as reduction in cel viability after 72 hrs by MTT assay

> <document_journal>
Eur J Med Chem

> <molecule_chembl_id>
CHEMBL4743980

> <standard_value>
25900

> <IC50_uM>
25.9

> <Activity>
No

> <Canonical_Smiles>
COc1ccc2c(c1)CN1C(=S)N(c3cnc(C#N)c(C(F)(F)F)c3)C(=O)C1C2

$$$$

  SciTegic03142313312D

 30 33  0  0  0  0            999 V2000
    3.8926   -3.7566    0.0000 C   0  0
    2.5951   -3.0039    0.0000 C   0  0
    2.5973   -1.5031    0.0000 O   0  0
    1.2990   -0.7500    0.0000 C   0  0
    1.2990    0.7500    0.0000 C   0  0
    0.0000    1.5000    0.0000 C   0  0
   -1.2990    0.7500    0.0000 C   0  0
   -1.2990   -0.7500    0.0000 C   0  0
    0.0000   -1.5000    0.0000 C   0  0
   -2.5981   -1.5000    0.0000 C   0  0
   -3.8971   -0.7500    0.0000 N   0  0
   -5.3229   -1.2135    0.0000 C   0  0
   -5.7863   -2.6402    0.0000 S   0  0
   -6.2045    0.0000    0.0000 N   0  0
   -7.7053    0.0000    0.0000 C   0  0
   -8.5474   -1.2353    0.0000 C   0  0
  -10.0431   -1.1225    0.0000 N   0  0
  -10.6932    0.2293    0.0000 C   0  0
  -12.1898    0.3422    0.0000 C   0  0
  -13.6856    0.4551    0.0000 N   0  0
   -9.8476    1.4682    0.0000 C   0  0
  -10.4981    2.8208    0.0000 C   0  0
  -11.9938    2.9346    0.0000 F   0  0
   -9.6521    4.0594    0.0000 F   0  0
  -11.1476    4.1729    0.0000 F   0  0
   -8.3519    1.3554    0.0000 C   0  0
   -5.3229    1.2135    0.0000 C   0  0
   -5.7863    2.6401    0.0000 O   0  0
   -3.8971    0.7500    0.0000 C   0  0  3  0  0  0
   -2.5981    1.5000    0.0000 C   0  0
  1  2  1  0
  2  3  1  0
  3  4  1  0
  4  5  2  0
  5  6  1  0
  6  7  2  0
  7  8  1  0
  8  9  2  0
  9  4  1  0
  8 10  1  0
 10 11  1  0
 11 12  1  0
 12 13  2  0
 12 14  1  0
 14 15  1  0
 15 16  2  0
 16 17  1  0
 17 18  2  0
 18 19  1  0
 19 20  3  0
 18 21  1  0
 21 22  1  0
 22 23  1  0
 22 24  1  0
 22 25  1  0
 21 26  2  0
 26 15  1  0
 14 27  1  0
 27 28  2  0
 27 29  1  0
 29 11  1  0
 29 30  1  4
 30  7  1  0
M  END
> <assay_chembl_id>
CHEMBL4686001

> <assay_description>
Antiproliferative activity against human LNCaP cells assessed as reduction in cel viability after 72 hrs by MTT assay

> <document_journal>
Eur J Med Chem

> <molecule_chembl_id>
CHEMBL4797878

> <standard_value>
65900

> <IC50_uM>
65.9

> <Activity>
No

> <Canonical_Smiles>
CCOc1ccc2c(c1)CN1C(=S)N(c3cnc(C#N)c(C(F)(F)F)c3)C(=O)C1C2

$$$$

  SciTegic03142313312D

 32 35  0  0  0  0            999 V2000
    5.1887   -6.0105    0.0000 C   0  0
    3.8912   -5.2578    0.0000 C   0  0
    3.8933   -3.7570    0.0000 C   0  0
    2.5951   -3.0039    0.0000 C   0  0
    2.5973   -1.5031    0.0000 O   0  0
    1.2990   -0.7500    0.0000 C   0  0
    1.2990    0.7500    0.0000 C   0  0
    0.0000    1.5000    0.0000 C   0  0
   -1.2990    0.7500    0.0000 C   0  0
   -1.2990   -0.7500    0.0000 C   0  0
    0.0000   -1.5000    0.0000 C   0  0
   -2.5981   -1.5000    0.0000 C   0  0
   -3.8971   -0.7500    0.0000 N   0  0
   -5.3229   -1.2135    0.0000 C   0  0
   -5.7863   -2.6402    0.0000 S   0  0
   -6.2045    0.0000    0.0000 N   0  0
   -7.7053    0.0000    0.0000 C   0  0
   -8.5474   -1.2353    0.0000 C   0  0
  -10.0431   -1.1225    0.0000 N   0  0
  -10.6932    0.2293    0.0000 C   0  0
  -12.1898    0.3422    0.0000 C   0  0
  -13.6856    0.4551    0.0000 N   0  0
   -9.8476    1.4682    0.0000 C   0  0
  -10.4981    2.8208    0.0000 C   0  0
  -11.9938    2.9346    0.0000 F   0  0
   -9.6521    4.0594    0.0000 F   0  0
  -11.1476    4.1729    0.0000 F   0  0
   -8.3519    1.3554    0.0000 C   0  0
   -5.3229    1.2135    0.0000 C   0  0
   -5.7863    2.6401    0.0000 O   0  0
   -3.8971    0.7500    0.0000 C   0  0  3  0  0  0
   -2.5981    1.5000    0.0000 C   0  0
  1  2  1  0
  2  3  1  0
  3  4  1  0
  4  5  1  0
  5  6  1  0
  6  7  2  0
  7  8  1  0
  8  9  2  0
  9 10  1  0
 10 11  2  0
 11  6  1  0
 10 12  1  0
 12 13  1  0
 13 14  1  0
 14 15  2  0
 14 16  1  0
 16 17  1  0
 17 18  2  0
 18 19  1  0
 19 20  2  0
 20 21  1  0
 21 22  3  0
 20 23  1  0
 23 24  1  0
 24 25  1  0
 24 26  1  0
 24 27  1  0
 23 28  2  0
 28 17  1  0
 16 29  1  0
 29 30  2  0
 29 31  1  0
 31 13  1  0
 31 32  1  4
 32  9  1  0
M  END
> <assay_chembl_id>
CHEMBL4686001

> <assay_description>
Antiproliferative activity against human LNCaP cells assessed as reduction in cel viability after 72 hrs by MTT assay

> <document_journal>
Eur J Med Chem

> <molecule_chembl_id>
CHEMBL4796924

> <standard_value>
20000

> <IC50_uM>
20

> <Activity>
No

> <Canonical_Smiles>
CCCCOc1ccc2c(c1)CN1C(=S)N(c3cnc(C#N)c(C(F)(F)F)c3)C(=O)C1C2

$$$$

  SciTegic03142313312D

 32 35  0  0  0  0            999 V2000
    5.1996   -1.4928    0.0000 C   0  0
    3.8990   -0.7455    0.0000 O   0  0
    2.6003   -1.4977    0.0000 C   0  0
    2.6030   -2.9977    0.0000 O   0  0
    1.2990   -0.7500    0.0000 C   0  0
    1.2990    0.7500    0.0000 C   0  0
    0.0000    1.5000    0.0000 C   0  0
   -1.2990    0.7500    0.0000 C   0  0
   -1.2990   -0.7500    0.0000 C   0  0
    0.0000   -1.5000    0.0000 C   0  0
    0.0000   -3.0000    0.0000 F   0  0
   -2.5981    1.5000    0.0000 C   0  0
   -2.5981    3.0000    0.0000 C   0  0  3  0  0  0
   -3.7124    4.0030    0.0000 C   0  0
   -5.1796    3.6910    0.0000 O   0  0
   -3.1023    5.3733    0.0000 N   0  0
   -3.8527    6.6730    0.0000 C   0  0
   -5.3435    6.7846    0.0000 C   0  0
   -5.9937    8.1363    0.0000 N   0  0
   -5.1480    9.3753    0.0000 C   0  0
   -5.7985   10.7278    0.0000 C   0  0
   -6.4487   12.0796    0.0000 N   0  0
   -3.6523    9.2624    0.0000 C   0  0
   -2.8062   10.5020    0.0000 C   0  0
   -3.4555   11.8542    0.0000 F   0  0
   -1.3105   10.3887    0.0000 F   0  0
   -1.9600   11.7405    0.0000 F   0  0
   -3.0022    7.9106    0.0000 C   0  0
   -1.6105    5.2165    0.0000 C   0  0
   -0.6067    6.3311    0.0000 S   0  0
   -1.2991    3.7500    0.0000 N   0  0
    0.0000    3.0000    0.0000 C   0  0
  1  2  1  0
  2  3  1  0
  3  4  2  0
  3  5  1  0
  5  6  2  0
  6  7  1  0
  7  8  2  0
  8  9  1  0
  9 10  2  0
 10  5  1  0
 10 11  1  0
  8 12  1  0
 13 12  1  4
 13 14  1  0
 14 15  2  0
 14 16  1  0
 16 17  1  0
 17 18  2  0
 18 19  1  0
 19 20  2  0
 20 21  1  0
 21 22  3  0
 20 23  1  0
 23 24  1  0
 24 25  1  0
 24 26  1  0
 24 27  1  0
 23 28  2  0
 28 17  1  0
 16 29  1  0
 29 30  2  0
 29 31  1  0
 31 13  1  0
 31 32  1  0
 32  7  1  0
M  END
> <assay_chembl_id>
CHEMBL4686001

> <assay_description>
Antiproliferative activity against human LNCaP cells assessed as reduction in cel viability after 72 hrs by MTT assay

> <document_journal>
Eur J Med Chem

> <molecule_chembl_id>
CHEMBL4741784

> <standard_value>
55500

> <IC50_uM>
55.5

> <Activity>
No

> <Canonical_Smiles>
COC(=O)c1cc2c(cc1F)CC1C(=O)N(c3cnc(C#N)c(C(F)(F)F)c3)C(=S)N1C2

$$$$

  SciTegic03142313312D

 32 35  0  0  0  0            999 V2000
    5.1996   -1.4928    0.0000 C   0  0
    3.8990   -0.7455    0.0000 N   0  0
    2.6003   -1.4977    0.0000 C   0  0
    2.6030   -2.9977    0.0000 O   0  0
    1.2990   -0.7500    0.0000 C   0  0
    1.2990    0.7500    0.0000 C   0  0
    0.0000    1.5000    0.0000 C   0  0
   -1.2990    0.7500    0.0000 C   0  0
   -1.2990   -0.7500    0.0000 C   0  0
    0.0000   -1.5000    0.0000 C   0  0
    0.0000   -3.0000    0.0000 F   0  0
   -2.5981    1.5000    0.0000 C   0  0
   -2.5981    3.0000    0.0000 C   0  0  3  0  0  0
   -3.7124    4.0030    0.0000 C   0  0
   -5.1796    3.6910    0.0000 O   0  0
   -3.1023    5.3733    0.0000 N   0  0
   -3.8527    6.6730    0.0000 C   0  0
   -5.3435    6.7846    0.0000 C   0  0
   -5.9937    8.1363    0.0000 N   0  0
   -5.1480    9.3753    0.0000 C   0  0
   -5.7985   10.7278    0.0000 C   0  0
   -6.4487   12.0796    0.0000 N   0  0
   -3.6523    9.2624    0.0000 C   0  0
   -2.8062   10.5020    0.0000 C   0  0
   -3.4555   11.8542    0.0000 F   0  0
   -1.3105   10.3887    0.0000 F   0  0
   -1.9600   11.7405    0.0000 F   0  0
   -3.0022    7.9106    0.0000 C   0  0
   -1.6105    5.2165    0.0000 C   0  0
   -0.6067    6.3311    0.0000 S   0  0
   -1.2991    3.7500    0.0000 N   0  0
    0.0000    3.0000    0.0000 C   0  0
  1  2  1  0
  2  3  1  0
  3  4  2  0
  3  5  1  0
  5  6  2  0
  6  7  1  0
  7  8  2  0
  8  9  1  0
  9 10  2  0
 10  5  1  0
 10 11  1  0
  8 12  1  0
 13 12  1  4
 13 14  1  0
 14 15  2  0
 14 16  1  0
 16 17  1  0
 17 18  2  0
 18 19  1  0
 19 20  2  0
 20 21  1  0
 21 22  3  0
 20 23  1  0
 23 24  1  0
 24 25  1  0
 24 26  1  0
 24 27  1  0
 23 28  2  0
 28 17  1  0
 16 29  1  0
 29 30  2  0
 29 31  1  0
 31 13  1  0
 31 32  1  0
 32  7  1  0
M  END
> <assay_chembl_id>
CHEMBL4686001

> <assay_description>
Antiproliferative activity against human LNCaP cells assessed as reduction in cel viability after 72 hrs by MTT assay

> <document_journal>
Eur J Med Chem

> <molecule_chembl_id>
CHEMBL4755108

> <standard_value>
43800

> <IC50_uM>
43.8

> <Activity>
No

> <Canonical_Smiles>
CNC(=O)c1cc2c(cc1F)CC1C(=O)N(c3cnc(C#N)c(C(F)(F)F)c3)C(=S)N1C2

$$$$

  SciTegic03142313312D

 33 36  0  0  0  0            999 V2000
    6.4983   -0.7414    0.0000 C   0  0
    5.2003   -1.4932    0.0000 C   0  0
    3.8990   -0.7455    0.0000 N   0  0
    2.6003   -1.4977    0.0000 C   0  0
    2.6030   -2.9977    0.0000 O   0  0
    1.2990   -0.7500    0.0000 C   0  0
    1.2990    0.7500    0.0000 C   0  0
    0.0000    1.5000    0.0000 C   0  0
   -1.2990    0.7500    0.0000 C   0  0
   -1.2990   -0.7500    0.0000 C   0  0
    0.0000   -1.5000    0.0000 C   0  0
    0.0000   -3.0000    0.0000 F   0  0
   -2.5981    1.5000    0.0000 C   0  0
   -2.5981    3.0000    0.0000 C   0  0  3  0  0  0
   -3.7124    4.0030    0.0000 C   0  0
   -5.1796    3.6910    0.0000 O   0  0
   -3.1023    5.3733    0.0000 N   0  0
   -3.8527    6.6730    0.0000 C   0  0
   -5.3435    6.7846    0.0000 C   0  0
   -5.9937    8.1363    0.0000 N   0  0
   -5.1480    9.3753    0.0000 C   0  0
   -5.7985   10.7278    0.0000 C   0  0
   -6.4487   12.0796    0.0000 N   0  0
   -3.6523    9.2624    0.0000 C   0  0
   -2.8062   10.5020    0.0000 C   0  0
   -3.4555   11.8542    0.0000 F   0  0
   -1.3105   10.3887    0.0000 F   0  0
   -1.9600   11.7405    0.0000 F   0  0
   -3.0022    7.9106    0.0000 C   0  0
   -1.6105    5.2165    0.0000 C   0  0
   -0.6067    6.3311    0.0000 S   0  0
   -1.2991    3.7500    0.0000 N   0  0
    0.0000    3.0000    0.0000 C   0  0
  1  2  1  0
  2  3  1  0
  3  4  1  0
  4  5  2  0
  4  6  1  0
  6  7  2  0
  7  8  1  0
  8  9  2  0
  9 10  1  0
 10 11  2  0
 11  6  1  0
 11 12  1  0
  9 13  1  0
 14 13  1  4
 14 15  1  0
 15 16  2  0
 15 17  1  0
 17 18  1  0
 18 19  2  0
 19 20  1  0
 20 21  2  0
 21 22  1  0
 22 23  3  0
 21 24  1  0
 24 25  1  0
 25 26  1  0
 25 27  1  0
 25 28  1  0
 24 29  2  0
 29 18  1  0
 17 30  1  0
 30 31  2  0
 30 32  1  0
 32 14  1  0
 32 33  1  0
 33  8  1  0
M  END
> <assay_chembl_id>
CHEMBL4686001

> <assay_description>
Antiproliferative activity against human LNCaP cells assessed as reduction in cel viability after 72 hrs by MTT assay

> <document_journal>
Eur J Med Chem

> <molecule_chembl_id>
CHEMBL4747377

> <standard_value>
32300

> <IC50_uM>
32.3

> <Activity>
No

> <Canonical_Smiles>
CCNC(=O)c1cc2c(cc1F)CC1C(=O)N(c3cnc(C#N)c(C(F)(F)F)c3)C(=S)N1C2

$$$$

  SciTegic03142313312D

 34 37  0  0  0  0            999 V2000
    7.7996   -1.4883    0.0000 C   0  0
    6.4990   -0.7409    0.0000 C   0  0
    5.2003   -1.4932    0.0000 C   0  0
    3.8990   -0.7455    0.0000 N   0  0
    2.6003   -1.4977    0.0000 C   0  0
    2.6030   -2.9977    0.0000 O   0  0
    1.2990   -0.7500    0.0000 C   0  0
    1.2990    0.7500    0.0000 C   0  0
    0.0000    1.5000    0.0000 C   0  0
   -1.2990    0.7500    0.0000 C   0  0
   -1.2990   -0.7500    0.0000 C   0  0
    0.0000   -1.5000    0.0000 C   0  0
    0.0000   -3.0000    0.0000 F   0  0
   -2.5981    1.5000    0.0000 C   0  0
   -2.5981    3.0000    0.0000 C   0  0  3  0  0  0
   -3.7124    4.0030    0.0000 C   0  0
   -5.1796    3.6910    0.0000 O   0  0
   -3.1023    5.3733    0.0000 N   0  0
   -3.8527    6.6730    0.0000 C   0  0
   -5.3435    6.7846    0.0000 C   0  0
   -5.9937    8.1363    0.0000 N   0  0
   -5.1480    9.3753    0.0000 C   0  0
   -5.7985   10.7278    0.0000 C   0  0
   -6.4487   12.0796    0.0000 N   0  0
   -3.6523    9.2624    0.0000 C   0  0
   -2.8062   10.5020    0.0000 C   0  0
   -3.4555   11.8542    0.0000 F   0  0
   -1.3105   10.3887    0.0000 F   0  0
   -1.9600   11.7405    0.0000 F   0  0
   -3.0022    7.9106    0.0000 C   0  0
   -1.6105    5.2165    0.0000 C   0  0
   -0.6067    6.3311    0.0000 S   0  0
   -1.2991    3.7500    0.0000 N   0  0
    0.0000    3.0000    0.0000 C   0  0
  1  2  1  0
  2  3  1  0
  3  4  1  0
  4  5  1  0
  5  6  2  0
  5  7  1  0
  7  8  2  0
  8  9  1  0
  9 10  2  0
 10 11  1  0
 11 12  2  0
 12  7  1  0
 12 13  1  0
 10 14  1  0
 15 14  1  4
 15 16  1  0
 16 17  2  0
 16 18  1  0
 18 19  1  0
 19 20  2  0
 20 21  1  0
 21 22  2  0
 22 23  1  0
 23 24  3  0
 22 25  1  0
 25 26  1  0
 26 27  1  0
 26 28  1  0
 26 29  1  0
 25 30  2  0
 30 19  1  0
 18 31  1  0
 31 32  2  0
 31 33  1  0
 33 15  1  0
 33 34  1  0
 34  9  1  0
M  END
> <assay_chembl_id>
CHEMBL4686001

> <assay_description>
Antiproliferative activity against human LNCaP cells assessed as reduction in cel viability after 72 hrs by MTT assay

> <document_journal>
Eur J Med Chem

> <molecule_chembl_id>
CHEMBL4777380

> <standard_value>
20100

> <IC50_uM>
20.1

> <Activity>
No

> <Canonical_Smiles>
CCCNC(=O)c1cc2c(cc1F)CC1C(=O)N(c3cnc(C#N)c(C(F)(F)F)c3)C(=S)N1C2

$$$$

  SciTegic03142313312D

 37 41  0  0  0  0            999 V2000
    5.1496   -9.8296    0.0000 N   0  0
    4.4995   -8.4778    0.0000 C   0  0
    3.8490   -7.1253    0.0000 C   0  0
    4.6946   -5.8864    0.0000 N   0  0
    4.0445   -4.5346    0.0000 C   0  0
    2.5536   -4.4230    0.0000 C   0  0
    1.8032   -3.1233    0.0000 N   0  0
    2.4133   -1.7530    0.0000 C   0  0
    3.8805   -1.4410    0.0000 O   0  0
    1.2990   -0.7500    0.0000 C   0  0  3  0  0  0
    1.2990    0.7500    0.0000 C   0  0
    0.0000    1.5000    0.0000 C   0  0
    0.0000    3.0000    0.0000 C   0  0
   -1.2991    3.7500    0.0000 C   0  0
   -1.2991    5.2500    0.0000 F   0  0
   -2.5981    3.0000    0.0000 C   0  0
   -3.8994    3.7477    0.0000 C   0  0
   -3.9020    5.2477    0.0000 O   0  0
   -5.1981    2.9954    0.0000 N   0  0
   -6.4994    3.7432    0.0000 C   0  0
   -7.7985    2.9932    0.0000 C   0  0
   -9.0975    3.7432    0.0000 C   0  0
   -9.0976    5.2432    0.0000 C   0  0
   -7.7986    5.9932    0.0000 C   0  0
   -6.4995    5.2432    0.0000 C   0  0
   -2.5981    1.5000    0.0000 C   0  0
   -1.2990    0.7500    0.0000 C   0  0
   -1.2990   -0.7500    0.0000 C   0  0
    0.0000   -1.5000    0.0000 N   0  0
    0.3114   -2.9665    0.0000 C   0  0
   -0.6923   -4.0811    0.0000 S   0  0
    1.7031   -5.6606    0.0000 C   0  0
    2.3532   -7.0124    0.0000 C   0  0
    1.5071   -8.2520    0.0000 C   0  0
    0.0113   -8.1401    0.0000 F   0  0
    2.1577   -9.6036    0.0000 F   0  0
    0.6621   -9.4913    0.0000 F   0  0
  1  2  3  0
  2  3  1  0
  3  4  2  0
  4  5  1  0
  5  6  2  0
  6  7  1  0
  7  8  1  0
  8  9  2  0
  8 10  1  0
 10 11  1  4
 11 12  1  0
 12 13  2  0
 13 14  1  0
 14 15  1  0
 14 16  2  0
 16 17  1  0
 17 18  2  0
 17 19  1  0
 19 20  1  0
 20 21  1  0
 21 22  1  0
 22 23  1  0
 23 24  1  0
 24 25  1  0
 25 20  1  0
 16 26  1  0
 26 27  2  0
 27 12  1  0
 27 28  1  0
 28 29  1  0
 29 10  1  0
 29 30  1  0
 30  7  1  0
 30 31  2  0
  6 32  1  0
 32 33  2  0
 33  3  1  0
 33 34  1  0
 34 35  1  0
 34 36  1  0
 34 37  1  0
M  END
> <assay_chembl_id>
CHEMBL4686001

> <assay_description>
Antiproliferative activity against human LNCaP cells assessed as reduction in cel viability after 72 hrs by MTT assay

> <document_journal>
Eur J Med Chem

> <molecule_chembl_id>
CHEMBL4761408

> <standard_value>
84700

> <IC50_uM>
84.7

> <Activity>
No

> <Canonical_Smiles>
N#Cc1ncc(N2C(=O)C3Cc4cc(F)c(C(=O)NC5CCCCC5)cc4CN3C2=S)cc1C(F)(F)F

$$$$

  SciTegic03142313312D

 35 38  0  0  0  0            999 V2000
    6.4964    0.7591    0.0000 C   0  0
    6.4990   -0.7409    0.0000 C   0  0  3  0  0  0
    7.7996   -1.4883    0.0000 O   0  0
    5.2003   -1.4932    0.0000 C   0  0
    3.8990   -0.7455    0.0000 N   0  0
    2.6003   -1.4977    0.0000 C   0  0
    2.6030   -2.9977    0.0000 O   0  0
    1.2990   -0.7500    0.0000 C   0  0
    1.2990    0.7500    0.0000 C   0  0
    0.0000    1.5000    0.0000 C   0  0
   -1.2990    0.7500    0.0000 C   0  0
   -1.2990   -0.7500    0.0000 C   0  0
    0.0000   -1.5000    0.0000 C   0  0
    0.0000   -3.0000    0.0000 F   0  0
   -2.5981    1.5000    0.0000 C   0  0
   -2.5981    3.0000    0.0000 C   0  0  3  0  0  0
   -3.7124    4.0030    0.0000 C   0  0
   -5.1796    3.6910    0.0000 O   0  0
   -3.1023    5.3733    0.0000 N   0  0
   -3.8527    6.6730    0.0000 C   0  0
   -5.3435    6.7846    0.0000 C   0  0
   -5.9937    8.1363    0.0000 N   0  0
   -5.1480    9.3753    0.0000 C   0  0
   -5.7985   10.7278    0.0000 C   0  0
   -6.4487   12.0796    0.0000 N   0  0
   -3.6523    9.2624    0.0000 C   0  0
   -2.8062   10.5020    0.0000 C   0  0
   -3.4555   11.8542    0.0000 F   0  0
   -1.3105   10.3887    0.0000 F   0  0
   -1.9600   11.7405    0.0000 F   0  0
   -3.0022    7.9106    0.0000 C   0  0
   -1.6105    5.2165    0.0000 C   0  0
   -0.6067    6.3311    0.0000 S   0  0
   -1.2991    3.7500    0.0000 N   0  0
    0.0000    3.0000    0.0000 C   0  0
  2  1  1  4
  2  3  1  0
  2  4  1  0
  4  5  1  0
  5  6  1  0
  6  7  2  0
  6  8  1  0
  8  9  2  0
  9 10  1  0
 10 11  2  0
 11 12  1  0
 12 13  2  0
 13  8  1  0
 13 14  1  0
 11 15  1  0
 16 15  1  4
 16 17  1  0
 17 18  2  0
 17 19  1  0
 19 20  1  0
 20 21  2  0
 21 22  1  0
 22 23  2  0
 23 24  1  0
 24 25  3  0
 23 26  1  0
 26 27  1  0
 27 28  1  0
 27 29  1  0
 27 30  1  0
 26 31  2  0
 31 20  1  0
 19 32  1  0
 32 33  2  0
 32 34  1  0
 34 16  1  0
 34 35  1  0
 35 10  1  0
M  END
> <assay_chembl_id>
CHEMBL4686001

> <assay_description>
Antiproliferative activity against human LNCaP cells assessed as reduction in cel viability after 72 hrs by MTT assay

> <document_journal>
Eur J Med Chem

> <molecule_chembl_id>
CHEMBL4763339

> <standard_value>
47500

> <IC50_uM>
47.5

> <Activity>
No

> <Canonical_Smiles>
CC(O)CNC(=O)c1cc2c(cc1F)CC1C(=O)N(c3cnc(C#N)c(C(F)(F)F)c3)C(=S)N1C2

$$$$

  SciTegic03142313312D

 35 38  0  0  0  0            999 V2000
    5.2029   -2.9932    0.0000 C   0  0
    5.2003   -1.4932    0.0000 C   0  0  3  0  0  0
    6.4990   -0.7409    0.0000 C   0  0
    7.7996   -1.4883    0.0000 O   0  0
    3.8990   -0.7455    0.0000 N   0  0
    2.6003   -1.4977    0.0000 C   0  0
    2.6030   -2.9977    0.0000 O   0  0
    1.2990   -0.7500    0.0000 C   0  0
    1.2990    0.7500    0.0000 C   0  0
    0.0000    1.5000    0.0000 C   0  0
   -1.2990    0.7500    0.0000 C   0  0
   -1.2990   -0.7500    0.0000 C   0  0
    0.0000   -1.5000    0.0000 C   0  0
    0.0000   -3.0000    0.0000 F   0  0
   -2.5981    1.5000    0.0000 C   0  0
   -2.5981    3.0000    0.0000 C   0  0  3  0  0  0
   -3.7124    4.0030    0.0000 C   0  0
   -5.1796    3.6910    0.0000 O   0  0
   -3.1023    5.3733    0.0000 N   0  0
   -3.8527    6.6730    0.0000 C   0  0
   -5.3435    6.7846    0.0000 C   0  0
   -5.9937    8.1363    0.0000 N   0  0
   -5.1480    9.3753    0.0000 C   0  0
   -5.7985   10.7278    0.0000 C   0  0
   -6.4487   12.0796    0.0000 N   0  0
   -3.6523    9.2624    0.0000 C   0  0
   -2.8062   10.5020    0.0000 C   0  0
   -3.4555   11.8542    0.0000 F   0  0
   -1.3105   10.3887    0.0000 F   0  0
   -1.9600   11.7405    0.0000 F   0  0
   -3.0022    7.9106    0.0000 C   0  0
   -1.6105    5.2165    0.0000 C   0  0
   -0.6067    6.3311    0.0000 S   0  0
   -1.2991    3.7500    0.0000 N   0  0
    0.0000    3.0000    0.0000 C   0  0
  2  1  1  4
  2  3  1  0
  3  4  1  0
  2  5  1  0
  5  6  1  0
  6  7  2  0
  6  8  1  0
  8  9  2  0
  9 10  1  0
 10 11  2  0
 11 12  1  0
 12 13  2  0
 13  8  1  0
 13 14  1  0
 11 15  1  0
 16 15  1  4
 16 17  1  0
 17 18  2  0
 17 19  1  0
 19 20  1  0
 20 21  2  0
 21 22  1  0
 22 23  2  0
 23 24  1  0
 24 25  3  0
 23 26  1  0
 26 27  1  0
 27 28  1  0
 27 29  1  0
 27 30  1  0
 26 31  2  0
 31 20  1  0
 19 32  1  0
 32 33  2  0
 32 34  1  0
 34 16  1  0
 34 35  1  0
 35 10  1  0
M  END
> <assay_chembl_id>
CHEMBL4686001

> <assay_description>
Antiproliferative activity against human LNCaP cells assessed as reduction in cel viability after 72 hrs by MTT assay

> <document_journal>
Eur J Med Chem

> <molecule_chembl_id>
CHEMBL4758058

> <standard_value>
34200

> <IC50_uM>
34.2

> <Activity>
No

> <Canonical_Smiles>
CC(CO)NC(=O)c1cc2c(cc1F)CC1C(=O)N(c3cnc(C#N)c(C(F)(F)F)c3)C(=S)N1C2

$$$$

  SciTegic03142313312D

 31 34  0  0  0  0            999 V2000
    3.8926   -3.7566    0.0000 C   0  0
    2.5951   -3.0039    0.0000 O   0  0
    2.5973   -1.5031    0.0000 C   0  0
    3.8976   -0.7553    0.0000 O   0  0
    1.2990   -0.7500    0.0000 C   0  0
    1.2990    0.7500    0.0000 C   0  0
    0.0000    1.5000    0.0000 C   0  0
   -1.2990    0.7500    0.0000 C   0  0
   -1.2990   -0.7500    0.0000 C   0  0
    0.0000   -1.5000    0.0000 C   0  0
   -2.5981   -1.5000    0.0000 C   0  0
   -3.8971   -0.7500    0.0000 N   0  0
   -5.3229   -1.2135    0.0000 C   0  0
   -5.7863   -2.6402    0.0000 S   0  0
   -6.2045    0.0000    0.0000 N   0  0
   -7.7053    0.0000    0.0000 C   0  0
   -8.5474   -1.2353    0.0000 C   0  0
  -10.0431   -1.1225    0.0000 N   0  0
  -10.6932    0.2293    0.0000 C   0  0
  -12.1898    0.3422    0.0000 C   0  0
  -13.6856    0.4551    0.0000 N   0  0
   -9.8476    1.4682    0.0000 C   0  0
  -10.4981    2.8208    0.0000 C   0  0
  -11.9938    2.9346    0.0000 F   0  0
   -9.6521    4.0594    0.0000 F   0  0
  -11.1476    4.1729    0.0000 F   0  0
   -8.3519    1.3554    0.0000 C   0  0
   -5.3229    1.2135    0.0000 C   0  0
   -5.7863    2.6401    0.0000 O   0  0
   -3.8971    0.7500    0.0000 C   0  0  3  0  0  0
   -2.5981    1.5000    0.0000 C   0  0
  1  2  1  0
  2  3  1  0
  3  4  2  0
  3  5  1  0
  5  6  2  0
  6  7  1  0
  7  8  2  0
  8  9  1  0
  9 10  2  0
 10  5  1  0
  9 11  1  0
 11 12  1  0
 12 13  1  0
 13 14  2  0
 13 15  1  0
 15 16  1  0
 16 17  2  0
 17 18  1  0
 18 19  2  0
 19 20  1  0
 20 21  3  0
 19 22  1  0
 22 23  1  0
 23 24  1  0
 23 25  1  0
 23 26  1  0
 22 27  2  0
 27 16  1  0
 15 28  1  0
 28 29  2  0
 28 30  1  0
 30 12  1  0
 30 31  1  4
 31  8  1  0
M  END
> <assay_chembl_id>
CHEMBL4686001

> <assay_description>
Antiproliferative activity against human LNCaP cells assessed as reduction in cel viability after 72 hrs by MTT assay

> <document_journal>
Eur J Med Chem

> <molecule_chembl_id>
CHEMBL4797655

> <standard_value>
58400

> <IC50_uM>
58.4

> <Activity>
No

> <Canonical_Smiles>
COC(=O)c1ccc2c(c1)CN1C(=S)N(c3cnc(C#N)c(C(F)(F)F)c3)C(=O)C1C2

$$$$

  SciTegic03142313312D

 31 34  0  0  0  0            999 V2000
    3.8926   -3.7566    0.0000 C   0  0
    2.5951   -3.0039    0.0000 N   0  0
    2.5973   -1.5031    0.0000 C   0  0
    3.8976   -0.7553    0.0000 O   0  0
    1.2990   -0.7500    0.0000 C   0  0
    1.2990    0.7500    0.0000 C   0  0
    0.0000    1.5000    0.0000 C   0  0
   -1.2990    0.7500    0.0000 C   0  0
   -1.2990   -0.7500    0.0000 C   0  0
    0.0000   -1.5000    0.0000 C   0  0
   -2.5981   -1.5000    0.0000 C   0  0
   -3.8971   -0.7500    0.0000 N   0  0
   -5.3229   -1.2135    0.0000 C   0  0
   -5.7863   -2.6402    0.0000 S   0  0
   -6.2045    0.0000    0.0000 N   0  0
   -7.7053    0.0000    0.0000 C   0  0
   -8.5474   -1.2353    0.0000 C   0  0
  -10.0431   -1.1225    0.0000 N   0  0
  -10.6932    0.2293    0.0000 C   0  0
  -12.1898    0.3422    0.0000 C   0  0
  -13.6856    0.4551    0.0000 N   0  0
   -9.8476    1.4682    0.0000 C   0  0
  -10.4981    2.8208    0.0000 C   0  0
  -11.9938    2.9346    0.0000 F   0  0
   -9.6521    4.0594    0.0000 F   0  0
  -11.1476    4.1729    0.0000 F   0  0
   -8.3519    1.3554    0.0000 C   0  0
   -5.3229    1.2135    0.0000 C   0  0
   -5.7863    2.6401    0.0000 O   0  0
   -3.8971    0.7500    0.0000 C   0  0  3  0  0  0
   -2.5981    1.5000    0.0000 C   0  0
  1  2  1  0
  2  3  1  0
  3  4  2  0
  3  5  1  0
  5  6  2  0
  6  7  1  0
  7  8  2  0
  8  9  1  0
  9 10  2  0
 10  5  1  0
  9 11  1  0
 11 12  1  0
 12 13  1  0
 13 14  2  0
 13 15  1  0
 15 16  1  0
 16 17  2  0
 17 18  1  0
 18 19  2  0
 19 20  1  0
 20 21  3  0
 19 22  1  0
 22 23  1  0
 23 24  1  0
 23 25  1  0
 23 26  1  0
 22 27  2  0
 27 16  1  0
 15 28  1  0
 28 29  2  0
 28 30  1  0
 30 12  1  0
 30 31  1  4
 31  8  1  0
M  END
> <assay_chembl_id>
CHEMBL4686001

> <assay_description>
Antiproliferative activity against human LNCaP cells assessed as reduction in cel viability after 72 hrs by MTT assay

> <document_journal>
Eur J Med Chem

> <molecule_chembl_id>
CHEMBL4743380

> <standard_value>
36700

> <IC50_uM>
36.7

> <Activity>
No

> <Canonical_Smiles>
CNC(=O)c1ccc2c(c1)CN1C(=S)N(c3cnc(C#N)c(C(F)(F)F)c3)C(=O)C1C2

$$$$

  SciTegic03142313312D

 32 35  0  0  0  0            999 V2000
    3.8912   -5.2570    0.0000 C   0  0
    3.8933   -3.7570    0.0000 C   0  0
    2.5951   -3.0039    0.0000 N   0  0
    2.5973   -1.5031    0.0000 C   0  0
    3.8976   -0.7553    0.0000 O   0  0
    1.2990   -0.7500    0.0000 C   0  0
    1.2990    0.7500    0.0000 C   0  0
    0.0000    1.5000    0.0000 C   0  0
   -1.2990    0.7500    0.0000 C   0  0
   -1.2990   -0.7500    0.0000 C   0  0
    0.0000   -1.5000    0.0000 C   0  0
   -2.5981   -1.5000    0.0000 C   0  0
   -3.8971   -0.7500    0.0000 N   0  0
   -5.3229   -1.2135    0.0000 C   0  0
   -5.7863   -2.6402    0.0000 S   0  0
   -6.2045    0.0000    0.0000 N   0  0
   -7.7053    0.0000    0.0000 C   0  0
   -8.5474   -1.2353    0.0000 C   0  0
  -10.0431   -1.1225    0.0000 N   0  0
  -10.6932    0.2293    0.0000 C   0  0
  -12.1898    0.3422    0.0000 C   0  0
  -13.6856    0.4551    0.0000 N   0  0
   -9.8476    1.4682    0.0000 C   0  0
  -10.4981    2.8208    0.0000 C   0  0
  -11.9938    2.9346    0.0000 F   0  0
   -9.6521    4.0594    0.0000 F   0  0
  -11.1476    4.1729    0.0000 F   0  0
   -8.3519    1.3554    0.0000 C   0  0
   -5.3229    1.2135    0.0000 C   0  0
   -5.7863    2.6401    0.0000 O   0  0
   -3.8971    0.7500    0.0000 C   0  0  3  0  0  0
   -2.5981    1.5000    0.0000 C   0  0
  1  2  1  0
  2  3  1  0
  3  4  1  0
  4  5  2  0
  4  6  1  0
  6  7  2  0
  7  8  1  0
  8  9  2  0
  9 10  1  0
 10 11  2  0
 11  6  1  0
 10 12  1  0
 12 13  1  0
 13 14  1  0
 14 15  2  0
 14 16  1  0
 16 17  1  0
 17 18  2  0
 18 19  1  0
 19 20  2  0
 20 21  1  0
 21 22  3  0
 20 23  1  0
 23 24  1  0
 24 25  1  0
 24 26  1  0
 24 27  1  0
 23 28  2  0
 28 17  1  0
 16 29  1  0
 29 30  2  0
 29 31  1  0
 31 13  1  0
 31 32  1  4
 32  9  1  0
M  END
> <assay_chembl_id>
CHEMBL4686001

> <assay_description>
Antiproliferative activity against human LNCaP cells assessed as reduction in cel viability after 72 hrs by MTT assay

> <document_journal>
Eur J Med Chem

> <molecule_chembl_id>
CHEMBL4746920

> <standard_value>
29300

> <IC50_uM>
29.3

> <Activity>
No

> <Canonical_Smiles>
CCNC(=O)c1ccc2c(c1)CN1C(=S)N(c3cnc(C#N)c(C(F)(F)F)c3)C(=O)C1C2

$$$$

  SciTegic03142313312D

 36 40  0  0  0  0            999 V2000
    5.1496   -9.8296    0.0000 N   0  0
    4.4995   -8.4778    0.0000 C   0  0
    3.8490   -7.1253    0.0000 C   0  0
    4.6946   -5.8864    0.0000 N   0  0
    4.0445   -4.5346    0.0000 C   0  0
    2.5536   -4.4230    0.0000 C   0  0
    1.8032   -3.1233    0.0000 N   0  0
    2.4133   -1.7530    0.0000 C   0  0
    3.8805   -1.4410    0.0000 O   0  0
    1.2990   -0.7500    0.0000 C   0  0  3  0  0  0
    1.2990    0.7500    0.0000 C   0  0
    0.0000    1.5000    0.0000 C   0  0
    0.0000    3.0000    0.0000 C   0  0
   -1.2991    3.7500    0.0000 C   0  0
   -2.5981    3.0000    0.0000 C   0  0
   -3.8994    3.7477    0.0000 C   0  0
   -3.9020    5.2477    0.0000 O   0  0
   -5.1981    2.9954    0.0000 N   0  0
   -6.4994    3.7432    0.0000 C   0  0
   -7.7985    2.9932    0.0000 C   0  0
   -9.0975    3.7432    0.0000 C   0  0
   -9.0976    5.2432    0.0000 C   0  0
   -7.7986    5.9932    0.0000 C   0  0
   -6.4995    5.2432    0.0000 C   0  0
   -2.5981    1.5000    0.0000 C   0  0
   -1.2990    0.7500    0.0000 C   0  0
   -1.2990   -0.7500    0.0000 C   0  0
    0.0000   -1.5000    0.0000 N   0  0
    0.3114   -2.9665    0.0000 C   0  0
   -0.6923   -4.0811    0.0000 S   0  0
    1.7031   -5.6606    0.0000 C   0  0
    2.3532   -7.0124    0.0000 C   0  0
    1.5071   -8.2520    0.0000 C   0  0
    0.0113   -8.1401    0.0000 F   0  0
    2.1577   -9.6036    0.0000 F   0  0
    0.6621   -9.4913    0.0000 F   0  0
  1  2  3  0
  2  3  1  0
  3  4  2  0
  4  5  1  0
  5  6  2  0
  6  7  1  0
  7  8  1  0
  8  9  2  0
  8 10  1  0
 10 11  1  4
 11 12  1  0
 12 13  2  0
 13 14  1  0
 14 15  2  0
 15 16  1  0
 16 17  2  0
 16 18  1  0
 18 19  1  0
 19 20  1  0
 20 21  1  0
 21 22  1  0
 22 23  1  0
 23 24  1  0
 24 19  1  0
 15 25  1  0
 25 26  2  0
 26 12  1  0
 26 27  1  0
 27 28  1  0
 28 10  1  0
 28 29  1  0
 29  7  1  0
 29 30  2  0
  6 31  1  0
 31 32  2  0
 32  3  1  0
 32 33  1  0
 33 34  1  0
 33 35  1  0
 33 36  1  0
M  END
> <assay_chembl_id>
CHEMBL4686001

> <assay_description>
Antiproliferative activity against human LNCaP cells assessed as reduction in cel viability after 72 hrs by MTT assay

> <document_journal>
Eur J Med Chem

> <molecule_chembl_id>
CHEMBL4744491

> <standard_value>
72300

> <IC50_uM>
72.3

> <Activity>
No

> <Canonical_Smiles>
N#Cc1ncc(N2C(=O)C3Cc4ccc(C(=O)NC5CCCCC5)cc4CN3C2=S)cc1C(F)(F)F

$$$$

  SciTegic03142313312D

 33 36  0  0  0  0            999 V2000
    5.1496   -9.8296    0.0000 N   0  0
    4.4995   -8.4778    0.0000 C   0  0
    3.8490   -7.1253    0.0000 C   0  0
    4.6946   -5.8864    0.0000 N   0  0
    4.0445   -4.5346    0.0000 C   0  0
    2.5536   -4.4230    0.0000 C   0  0
    1.8032   -3.1233    0.0000 N   0  0
    2.4133   -1.7530    0.0000 C   0  0
    3.8805   -1.4410    0.0000 O   0  0
    1.2990   -0.7500    0.0000 C   0  0  3  0  0  0
    1.2990    0.7500    0.0000 C   0  0
    0.0000    1.5000    0.0000 C   0  0
    0.0000    3.0000    0.0000 C   0  0
   -1.2991    3.7500    0.0000 C   0  0
   -2.5981    3.0000    0.0000 C   0  0
   -3.8994    3.7477    0.0000 C   0  0
   -3.9020    5.2477    0.0000 O   0  0
   -5.1981    2.9954    0.0000 N   0  0
   -6.4994    3.7432    0.0000 C   0  0
   -7.7981    2.9909    0.0000 C   0  0
   -9.0986    3.7382    0.0000 O   0  0
   -2.5981    1.5000    0.0000 C   0  0
   -1.2990    0.7500    0.0000 C   0  0
   -1.2990   -0.7500    0.0000 C   0  0
    0.0000   -1.5000    0.0000 N   0  0
    0.3114   -2.9665    0.0000 C   0  0
   -0.6923   -4.0811    0.0000 S   0  0
    1.7031   -5.6606    0.0000 C   0  0
    2.3532   -7.0124    0.0000 C   0  0
    1.5071   -8.2520    0.0000 C   0  0
    0.0113   -8.1401    0.0000 F   0  0
    2.1577   -9.6036    0.0000 F   0  0
    0.6621   -9.4913    0.0000 F   0  0
  1  2  3  0
  2  3  1  0
  3  4  2  0
  4  5  1  0
  5  6  2  0
  6  7  1  0
  7  8  1  0
  8  9  2  0
  8 10  1  0
 10 11  1  4
 11 12  1  0
 12 13  2  0
 13 14  1  0
 14 15  2  0
 15 16  1  0
 16 17  2  0
 16 18  1  0
 18 19  1  0
 19 20  1  0
 20 21  1  0
 15 22  1  0
 22 23  2  0
 23 12  1  0
 23 24  1  0
 24 25  1  0
 25 10  1  0
 25 26  1  0
 26  7  1  0
 26 27  2  0
  6 28  1  0
 28 29  2  0
 29  3  1  0
 29 30  1  0
 30 31  1  0
 30 32  1  0
 30 33  1  0
M  END
> <assay_chembl_id>
CHEMBL4686001

> <assay_description>
Antiproliferative activity against human LNCaP cells assessed as reduction in cel viability after 72 hrs by MTT assay

> <document_journal>
Eur J Med Chem

> <molecule_chembl_id>
CHEMBL4791149

> <standard_value>
29100

> <IC50_uM>
29.1

> <Activity>
No

> <Canonical_Smiles>
N#Cc1ncc(N2C(=O)C3Cc4ccc(C(=O)NCCO)cc4CN3C2=S)cc1C(F)(F)F

$$$$

  SciTegic03142313312D

 34 37  0  0  0  0            999 V2000
    5.1937   -3.0093    0.0000 C   0  0
    3.8933   -3.7570    0.0000 C   0  0  3  0  0  0
    3.8912   -5.2578    0.0000 C   0  0
    5.1887   -6.0105    0.0000 O   0  0
    2.5951   -3.0039    0.0000 N   0  0
    2.5973   -1.5031    0.0000 C   0  0
    3.8976   -0.7553    0.0000 O   0  0
    1.2990   -0.7500    0.0000 C   0  0
    1.2990    0.7500    0.0000 C   0  0
    0.0000    1.5000    0.0000 C   0  0
   -1.2990    0.7500    0.0000 C   0  0
   -1.2990   -0.7500    0.0000 C   0  0
    0.0000   -1.5000    0.0000 C   0  0
   -2.5981   -1.5000    0.0000 C   0  0
   -3.8971   -0.7500    0.0000 N   0  0
   -5.3229   -1.2135    0.0000 C   0  0
   -5.7863   -2.6402    0.0000 S   0  0
   -6.2045    0.0000    0.0000 N   0  0
   -7.7053    0.0000    0.0000 C   0  0
   -8.5474   -1.2353    0.0000 C   0  0
  -10.0431   -1.1225    0.0000 N   0  0
  -10.6932    0.2293    0.0000 C   0  0
  -12.1898    0.3422    0.0000 C   0  0
  -13.6856    0.4551    0.0000 N   0  0
   -9.8476    1.4682    0.0000 C   0  0
  -10.4981    2.8208    0.0000 C   0  0
  -11.9938    2.9346    0.0000 F   0  0
   -9.6521    4.0594    0.0000 F   0  0
  -11.1476    4.1729    0.0000 F   0  0
   -8.3519    1.3554    0.0000 C   0  0
   -5.3229    1.2135    0.0000 C   0  0
   -5.7863    2.6401    0.0000 O   0  0
   -3.8971    0.7500    0.0000 C   0  0  3  0  0  0
   -2.5981    1.5000    0.0000 C   0  0
  2  1  1  4
  2  3  1  0
  3  4  1  0
  2  5  1  0
  5  6  1  0
  6  7  2  0
  6  8  1  0
  8  9  2  0
  9 10  1  0
 10 11  2  0
 11 12  1  0
 12 13  2  0
 13  8  1  0
 12 14  1  0
 14 15  1  0
 15 16  1  0
 16 17  2  0
 16 18  1  0
 18 19  1  0
 19 20  2  0
 20 21  1  0
 21 22  2  0
 22 23  1  0
 23 24  3  0
 22 25  1  0
 25 26  1  0
 26 27  1  0
 26 28  1  0
 26 29  1  0
 25 30  2  0
 30 19  1  0
 18 31  1  0
 31 32  2  0
 31 33  1  0
 33 15  1  0
 33 34  1  4
 34 11  1  0
M  END
> <assay_chembl_id>
CHEMBL4686001

> <assay_description>
Antiproliferative activity against human LNCaP cells assessed as reduction in cel viability after 72 hrs by MTT assay

> <document_journal>
Eur J Med Chem

> <molecule_chembl_id>
CHEMBL4740951

> <standard_value>
44900

> <IC50_uM>
44.9

> <Activity>
No

> <Canonical_Smiles>
CC(CO)NC(=O)c1ccc2c(c1)CN1C(=S)N(c3cnc(C#N)c(C(F)(F)F)c3)C(=O)C1C2

$$$$

  SciTegic03142313312D

 30 33  0  0  0  0            999 V2000
    5.1496   -9.8296    0.0000 N   0  0
    4.4995   -8.4778    0.0000 C   0  0
    3.8490   -7.1253    0.0000 C   0  0
    4.6946   -5.8864    0.0000 N   0  0
    4.0445   -4.5346    0.0000 C   0  0
    2.5536   -4.4230    0.0000 C   0  0
    1.8032   -3.1233    0.0000 N   0  0
    2.4133   -1.7530    0.0000 C   0  0
    3.8805   -1.4410    0.0000 O   0  0
    1.2990   -0.7500    0.0000 C   0  0  3  0  0  0
    1.2990    0.7500    0.0000 C   0  0
    0.0000    1.5000    0.0000 C   0  0
    0.0000    3.0000    0.0000 C   0  0
   -1.2991    3.7500    0.0000 C   0  0
   -2.5981    3.0000    0.0000 C   0  0
   -3.8994    3.7477    0.0000 N   0  3
   -5.1974    2.9959    0.0000 O   0  0
   -3.9020    5.2477    0.0000 O   0  5
   -2.5981    1.5000    0.0000 C   0  0
   -1.2990    0.7500    0.0000 C   0  0
   -1.2990   -0.7500    0.0000 C   0  0
    0.0000   -1.5000    0.0000 N   0  0
    0.3114   -2.9665    0.0000 C   0  0
   -0.6923   -4.0811    0.0000 S   0  0
    1.7031   -5.6606    0.0000 C   0  0
    2.3532   -7.0124    0.0000 C   0  0
    1.5071   -8.2520    0.0000 C   0  0
    0.0113   -8.1401    0.0000 F   0  0
    2.1577   -9.6036    0.0000 F   0  0
    0.6621   -9.4913    0.0000 F   0  0
  1  2  3  0
  2  3  1  0
  3  4  2  0
  4  5  1  0
  5  6  2  0
  6  7  1  0
  7  8  1  0
  8  9  2  0
  8 10  1  0
 10 11  1  4
 11 12  1  0
 12 13  2  0
 13 14  1  0
 14 15  2  0
 15 16  1  0
 16 17  2  0
 16 18  1  0
 15 19  1  0
 19 20  2  0
 20 12  1  0
 20 21  1  0
 21 22  1  0
 22 10  1  0
 22 23  1  0
 23  7  1  0
 23 24  2  0
  6 25  1  0
 25 26  2  0
 26  3  1  0
 26 27  1  0
 27 28  1  0
 27 29  1  0
 27 30  1  0
M  CHG  2  16   1  18  -1
M  END
> <assay_chembl_id>
CHEMBL4686001

> <assay_description>
Antiproliferative activity against human LNCaP cells assessed as reduction in cel viability after 72 hrs by MTT assay

> <document_journal>
Eur J Med Chem

> <molecule_chembl_id>
CHEMBL4790608

> <standard_value>
75700

> <IC50_uM>
75.7

> <Activity>
No

> <Canonical_Smiles>
N#Cc1ncc(N2C(=O)C3Cc4ccc([N+](=O)[O-])cc4CN3C2=S)cc1C(F)(F)F

$$$$

  SciTegic03142313312D

 28 31  0  0  0  0            999 V2000
    5.1496   -9.8296    0.0000 N   0  0
    4.4995   -8.4778    0.0000 C   0  0
    3.8490   -7.1253    0.0000 C   0  0
    4.6946   -5.8864    0.0000 N   0  0
    4.0445   -4.5346    0.0000 C   0  0
    2.5536   -4.4230    0.0000 C   0  0
    1.8032   -3.1233    0.0000 N   0  0
    2.4133   -1.7530    0.0000 C   0  0
    3.8805   -1.4410    0.0000 O   0  0
    1.2990   -0.7500    0.0000 C   0  0  3  0  0  0
    1.2990    0.7500    0.0000 C   0  0
    0.0000    1.5000    0.0000 C   0  0
    0.0000    3.0000    0.0000 C   0  0
   -1.2991    3.7500    0.0000 C   0  0
   -2.5981    3.0000    0.0000 C   0  0
   -3.8971    3.7500    0.0000 N   0  0
   -2.5981    1.5000    0.0000 C   0  0
   -1.2990    0.7500    0.0000 C   0  0
   -1.2990   -0.7500    0.0000 C   0  0
    0.0000   -1.5000    0.0000 N   0  0
    0.3114   -2.9665    0.0000 C   0  0
   -0.6923   -4.0811    0.0000 S   0  0
    1.7031   -5.6606    0.0000 C   0  0
    2.3532   -7.0124    0.0000 C   0  0
    1.5071   -8.2520    0.0000 C   0  0
    0.0113   -8.1401    0.0000 F   0  0
    2.1577   -9.6036    0.0000 F   0  0
    0.6621   -9.4913    0.0000 F   0  0
  1  2  3  0
  2  3  1  0
  3  4  2  0
  4  5  1  0
  5  6  2  0
  6  7  1  0
  7  8  1  0
  8  9  2  0
  8 10  1  0
 10 11  1  4
 11 12  1  0
 12 13  2  0
 13 14  1  0
 14 15  2  0
 15 16  1  0
 15 17  1  0
 17 18  2  0
 18 12  1  0
 18 19  1  0
 19 20  1  0
 20 10  1  0
 20 21  1  0
 21  7  1  0
 21 22  2  0
  6 23  1  0
 23 24  2  0
 24  3  1  0
 24 25  1  0
 25 26  1  0
 25 27  1  0
 25 28  1  0
M  END
> <assay_chembl_id>
CHEMBL4686001

> <assay_description>
Antiproliferative activity against human LNCaP cells assessed as reduction in cel viability after 72 hrs by MTT assay

> <document_journal>
Eur J Med Chem

> <molecule_chembl_id>
CHEMBL4748550

> <standard_value>
44700

> <IC50_uM>
44.7

> <Activity>
No

> <Canonical_Smiles>
N#Cc1ncc(N2C(=O)C3Cc4ccc(N)cc4CN3C2=S)cc1C(F)(F)F

$$$$

  SciTegic03142313312D

 31 34  0  0  0  0            999 V2000
    1.2948   -3.7516    0.0000 C   0  0
    2.5951   -3.0039    0.0000 C   0  0
    3.8926   -3.7566    0.0000 O   0  0
    2.5973   -1.5031    0.0000 N   0  0
    1.2990   -0.7500    0.0000 C   0  0
    1.2990    0.7500    0.0000 C   0  0
    0.0000    1.5000    0.0000 C   0  0
   -1.2990    0.7500    0.0000 C   0  0
   -1.2990   -0.7500    0.0000 C   0  0
    0.0000   -1.5000    0.0000 C   0  0
   -2.5981   -1.5000    0.0000 C   0  0
   -3.8971   -0.7500    0.0000 N   0  0
   -5.3229   -1.2135    0.0000 C   0  0
   -5.7863   -2.6402    0.0000 S   0  0
   -6.2045    0.0000    0.0000 N   0  0
   -7.7053    0.0000    0.0000 C   0  0
   -8.5474   -1.2353    0.0000 C   0  0
  -10.0431   -1.1225    0.0000 N   0  0
  -10.6932    0.2293    0.0000 C   0  0
  -12.1898    0.3422    0.0000 C   0  0
  -13.6856    0.4551    0.0000 N   0  0
   -9.8476    1.4682    0.0000 C   0  0
  -10.4981    2.8208    0.0000 C   0  0
  -11.9938    2.9346    0.0000 F   0  0
   -9.6521    4.0594    0.0000 F   0  0
  -11.1476    4.1729    0.0000 F   0  0
   -8.3519    1.3554    0.0000 C   0  0
   -5.3229    1.2135    0.0000 C   0  0
   -5.7863    2.6401    0.0000 O   0  0
   -3.8971    0.7500    0.0000 C   0  0  3  0  0  0
   -2.5981    1.5000    0.0000 C   0  0
  1  2  1  0
  2  3  2  0
  2  4  1  0
  4  5  1  0
  5  6  2  0
  6  7  1  0
  7  8  2  0
  8  9  1  0
  9 10  2  0
 10  5  1  0
  9 11  1  0
 11 12  1  0
 12 13  1  0
 13 14  2  0
 13 15  1  0
 15 16  1  0
 16 17  2  0
 17 18  1  0
 18 19  2  0
 19 20  1  0
 20 21  3  0
 19 22  1  0
 22 23  1  0
 23 24  1  0
 23 25  1  0
 23 26  1  0
 22 27  2  0
 27 16  1  0
 15 28  1  0
 28 29  2  0
 28 30  1  0
 30 12  1  0
 30 31  1  4
 31  8  1  0
M  END
> <assay_chembl_id>
CHEMBL4686001

> <assay_description>
Antiproliferative activity against human LNCaP cells assessed as reduction in cel viability after 72 hrs by MTT assay

> <document_journal>
Eur J Med Chem

> <molecule_chembl_id>
CHEMBL4786561

> <standard_value>
23100

> <IC50_uM>
23.1

> <Activity>
No

> <Canonical_Smiles>
CC(=O)Nc1ccc2c(c1)CN1C(=S)N(c3cnc(C#N)c(C(F)(F)F)c3)C(=O)C1C2

$$$$

  SciTegic03142313312D

 32 35  0  0  0  0            999 V2000
    3.8912   -5.2570    0.0000 C   0  0
    3.8933   -3.7570    0.0000 C   0  0
    2.5951   -3.0039    0.0000 C   0  0
    1.2948   -3.7516    0.0000 O   0  0
    2.5973   -1.5031    0.0000 N   0  0
    1.2990   -0.7500    0.0000 C   0  0
    1.2990    0.7500    0.0000 C   0  0
    0.0000    1.5000    0.0000 C   0  0
   -1.2990    0.7500    0.0000 C   0  0
   -1.2990   -0.7500    0.0000 C   0  0
    0.0000   -1.5000    0.0000 C   0  0
   -2.5981   -1.5000    0.0000 C   0  0
   -3.8971   -0.7500    0.0000 N   0  0
   -5.3229   -1.2135    0.0000 C   0  0
   -5.7863   -2.6402    0.0000 S   0  0
   -6.2045    0.0000    0.0000 N   0  0
   -7.7053    0.0000    0.0000 C   0  0
   -8.5474   -1.2353    0.0000 C   0  0
  -10.0431   -1.1225    0.0000 N   0  0
  -10.6932    0.2293    0.0000 C   0  0
  -12.1898    0.3422    0.0000 C   0  0
  -13.6856    0.4551    0.0000 N   0  0
   -9.8476    1.4682    0.0000 C   0  0
  -10.4981    2.8208    0.0000 C   0  0
  -11.9938    2.9346    0.0000 F   0  0
   -9.6521    4.0594    0.0000 F   0  0
  -11.1476    4.1729    0.0000 F   0  0
   -8.3519    1.3554    0.0000 C   0  0
   -5.3229    1.2135    0.0000 C   0  0
   -5.7863    2.6401    0.0000 O   0  0
   -3.8971    0.7500    0.0000 C   0  0  3  0  0  0
   -2.5981    1.5000    0.0000 C   0  0
  1  2  1  0
  2  3  1  0
  3  4  2  0
  3  5  1  0
  5  6  1  0
  6  7  2  0
  7  8  1  0
  8  9  2  0
  9 10  1  0
 10 11  2  0
 11  6  1  0
 10 12  1  0
 12 13  1  0
 13 14  1  0
 14 15  2  0
 14 16  1  0
 16 17  1  0
 17 18  2  0
 18 19  1  0
 19 20  2  0
 20 21  1  0
 21 22  3  0
 20 23  1  0
 23 24  1  0
 24 25  1  0
 24 26  1  0
 24 27  1  0
 23 28  2  0
 28 17  1  0
 16 29  1  0
 29 30  2  0
 29 31  1  0
 31 13  1  0
 31 32  1  4
 32  9  1  0
M  END
> <assay_chembl_id>
CHEMBL4686001

> <assay_description>
Antiproliferative activity against human LNCaP cells assessed as reduction in cel viability after 72 hrs by MTT assay

> <document_journal>
Eur J Med Chem

> <molecule_chembl_id>
CHEMBL4761532

> <standard_value>
22900

> <IC50_uM>
22.9

> <Activity>
No

> <Canonical_Smiles>
CCC(=O)Nc1ccc2c(c1)CN1C(=S)N(c3cnc(C#N)c(C(F)(F)F)c3)C(=O)C1C2

$$$$

  SciTegic03142313312D

 33 36  0  0  0  0            999 V2000
    5.1887   -6.0105    0.0000 C   0  0
    3.8912   -5.2578    0.0000 C   0  0
    3.8933   -3.7570    0.0000 C   0  0
    2.5951   -3.0039    0.0000 C   0  0
    1.2948   -3.7516    0.0000 O   0  0
    2.5973   -1.5031    0.0000 N   0  0
    1.2990   -0.7500    0.0000 C   0  0
    1.2990    0.7500    0.0000 C   0  0
    0.0000    1.5000    0.0000 C   0  0
   -1.2990    0.7500    0.0000 C   0  0
   -1.2990   -0.7500    0.0000 C   0  0
    0.0000   -1.5000    0.0000 C   0  0
   -2.5981   -1.5000    0.0000 C   0  0
   -3.8971   -0.7500    0.0000 N   0  0
   -5.3229   -1.2135    0.0000 C   0  0
   -5.7863   -2.6402    0.0000 S   0  0
   -6.2045    0.0000    0.0000 N   0  0
   -7.7053    0.0000    0.0000 C   0  0
   -8.5474   -1.2353    0.0000 C   0  0
  -10.0431   -1.1225    0.0000 N   0  0
  -10.6932    0.2293    0.0000 C   0  0
  -12.1898    0.3422    0.0000 C   0  0
  -13.6856    0.4551    0.0000 N   0  0
   -9.8476    1.4682    0.0000 C   0  0
  -10.4981    2.8208    0.0000 C   0  0
  -11.9938    2.9346    0.0000 F   0  0
   -9.6521    4.0594    0.0000 F   0  0
  -11.1476    4.1729    0.0000 F   0  0
   -8.3519    1.3554    0.0000 C   0  0
   -5.3229    1.2135    0.0000 C   0  0
   -5.7863    2.6401    0.0000 O   0  0
   -3.8971    0.7500    0.0000 C   0  0  3  0  0  0
   -2.5981    1.5000    0.0000 C   0  0
  1  2  1  0
  2  3  1  0
  3  4  1  0
  4  5  2  0
  4  6  1  0
  6  7  1  0
  7  8  2  0
  8  9  1  0
  9 10  2  0
 10 11  1  0
 11 12  2  0
 12  7  1  0
 11 13  1  0
 13 14  1  0
 14 15  1  0
 15 16  2  0
 15 17  1  0
 17 18  1  0
 18 19  2  0
 19 20  1  0
 20 21  2  0
 21 22  1  0
 22 23  3  0
 21 24  1  0
 24 25  1  0
 25 26  1  0
 25 27  1  0
 25 28  1  0
 24 29  2  0
 29 18  1  0
 17 30  1  0
 30 31  2  0
 30 32  1  0
 32 14  1  0
 32 33  1  4
 33 10  1  0
M  END
> <assay_chembl_id>
CHEMBL4686001

> <assay_description>
Antiproliferative activity against human LNCaP cells assessed as reduction in cel viability after 72 hrs by MTT assay

> <document_journal>
Eur J Med Chem

> <molecule_chembl_id>
CHEMBL4791036

> <standard_value>
34200

> <IC50_uM>
34.2

> <Activity>
No

> <Canonical_Smiles>
CCCC(=O)Nc1ccc2c(c1)CN1C(=S)N(c3cnc(C#N)c(C(F)(F)F)c3)C(=O)C1C2

$$$$

  SciTegic03142313312D

 32 35  0  0  0  0            999 V2000
    1.2948   -3.7516    0.0000 C   0  0
    2.5951   -3.0039    0.0000 S   0  0
    3.8926   -3.7566    0.0000 O   0  0
    2.5923   -4.5039    0.0000 O   0  0
    2.5973   -1.5031    0.0000 N   0  0
    1.2990   -0.7500    0.0000 C   0  0
    1.2990    0.7500    0.0000 C   0  0
    0.0000    1.5000    0.0000 C   0  0
   -1.2990    0.7500    0.0000 C   0  0
   -1.2990   -0.7500    0.0000 C   0  0
    0.0000   -1.5000    0.0000 C   0  0
   -2.5981   -1.5000    0.0000 C   0  0
   -3.8971   -0.7500    0.0000 N   0  0
   -5.3229   -1.2135    0.0000 C   0  0
   -5.7863   -2.6402    0.0000 S   0  0
   -6.2045    0.0000    0.0000 N   0  0
   -7.7053    0.0000    0.0000 C   0  0
   -8.5474   -1.2353    0.0000 C   0  0
  -10.0431   -1.1225    0.0000 N   0  0
  -10.6932    0.2293    0.0000 C   0  0
  -12.1898    0.3422    0.0000 C   0  0
  -13.6856    0.4551    0.0000 N   0  0
   -9.8476    1.4682    0.0000 C   0  0
  -10.4981    2.8208    0.0000 C   0  0
  -11.9938    2.9346    0.0000 F   0  0
   -9.6521    4.0594    0.0000 F   0  0
  -11.1476    4.1729    0.0000 F   0  0
   -8.3519    1.3554    0.0000 C   0  0
   -5.3229    1.2135    0.0000 C   0  0
   -5.7863    2.6401    0.0000 O   0  0
   -3.8971    0.7500    0.0000 C   0  0  3  0  0  0
   -2.5981    1.5000    0.0000 C   0  0
  1  2  1  0
  2  3  2  0
  2  4  2  0
  2  5  1  0
  5  6  1  0
  6  7  2  0
  7  8  1  0
  8  9  2  0
  9 10  1  0
 10 11  2  0
 11  6  1  0
 10 12  1  0
 12 13  1  0
 13 14  1  0
 14 15  2  0
 14 16  1  0
 16 17  1  0
 17 18  2  0
 18 19  1  0
 19 20  2  0
 20 21  1  0
 21 22  3  0
 20 23  1  0
 23 24  1  0
 24 25  1  0
 24 26  1  0
 24 27  1  0
 23 28  2  0
 28 17  1  0
 16 29  1  0
 29 30  2  0
 29 31  1  0
 31 13  1  0
 31 32  1  4
 32  9  1  0
M  END
> <assay_chembl_id>
CHEMBL4686001

> <assay_description>
Antiproliferative activity against human LNCaP cells assessed as reduction in cel viability after 72 hrs by MTT assay

> <document_journal>
Eur J Med Chem

> <molecule_chembl_id>
CHEMBL4776844

> <standard_value>
90200

> <IC50_uM>
90.2

> <Activity>
No

> <Canonical_Smiles>
CS(=O)(=O)Nc1ccc2c(c1)CN1C(=S)N(c3cnc(C#N)c(C(F)(F)F)c3)C(=O)C1C2

$$$$

  SciTegic03142313312D

 35 38  0  0  0  0            999 V2000
    5.1873   -7.5109    0.0000 C   0  0
    5.1894   -6.0109    0.0000 C   0  0
    3.8912   -5.2578    0.0000 C   0  0
    3.8933   -3.7570    0.0000 C   0  0
    2.5951   -3.0039    0.0000 S   0  0
    1.2948   -3.7516    0.0000 O   0  0
    2.5923   -4.5039    0.0000 O   0  0
    2.5973   -1.5031    0.0000 N   0  0
    1.2990   -0.7500    0.0000 C   0  0
    1.2990    0.7500    0.0000 C   0  0
    0.0000    1.5000    0.0000 C   0  0
   -1.2990    0.7500    0.0000 C   0  0
   -1.2990   -0.7500    0.0000 C   0  0
    0.0000   -1.5000    0.0000 C   0  0
   -2.5981   -1.5000    0.0000 C   0  0
   -3.8971   -0.7500    0.0000 N   0  0
   -5.3229   -1.2135    0.0000 C   0  0
   -5.7863   -2.6402    0.0000 S   0  0
   -6.2045    0.0000    0.0000 N   0  0
   -7.7053    0.0000    0.0000 C   0  0
   -8.5474   -1.2353    0.0000 C   0  0
  -10.0431   -1.1225    0.0000 N   0  0
  -10.6932    0.2293    0.0000 C   0  0
  -12.1898    0.3422    0.0000 C   0  0
  -13.6856    0.4551    0.0000 N   0  0
   -9.8476    1.4682    0.0000 C   0  0
  -10.4981    2.8208    0.0000 C   0  0
  -11.9938    2.9346    0.0000 F   0  0
   -9.6521    4.0594    0.0000 F   0  0
  -11.1476    4.1729    0.0000 F   0  0
   -8.3519    1.3554    0.0000 C   0  0
   -5.3229    1.2135    0.0000 C   0  0
   -5.7863    2.6401    0.0000 O   0  0
   -3.8971    0.7500    0.0000 C   0  0  3  0  0  0
   -2.5981    1.5000    0.0000 C   0  0
  1  2  1  0
  2  3  1  0
  3  4  1  0
  4  5  1  0
  5  6  2  0
  5  7  2  0
  5  8  1  0
  8  9  1  0
  9 10  2  0
 10 11  1  0
 11 12  2  0
 12 13  1  0
 13 14  2  0
 14  9  1  0
 13 15  1  0
 15 16  1  0
 16 17  1  0
 17 18  2  0
 17 19  1  0
 19 20  1  0
 20 21  2  0
 21 22  1  0
 22 23  2  0
 23 24  1  0
 24 25  3  0
 23 26  1  0
 26 27  1  0
 27 28  1  0
 27 29  1  0
 27 30  1  0
 26 31  2  0
 31 20  1  0
 19 32  1  0
 32 33  2  0
 32 34  1  0
 34 16  1  0
 34 35  1  4
 35 12  1  0
M  END
> <assay_chembl_id>
CHEMBL4686001

> <assay_description>
Antiproliferative activity against human LNCaP cells assessed as reduction in cel viability after 72 hrs by MTT assay

> <document_journal>
Eur J Med Chem

> <molecule_chembl_id>
CHEMBL4781936

> <standard_value>
84100

> <IC50_uM>
84.1

> <Activity>
No

> <Canonical_Smiles>
CCCCS(=O)(=O)Nc1ccc2c(c1)CN1C(=S)N(c3cnc(C#N)c(C(F)(F)F)c3)C(=O)C1C2

$$$$

  SciTegic03142313312D

 31 34  0  0  0  0            999 V2000
    5.1496   -9.8296    0.0000 N   0  0
    4.4995   -8.4778    0.0000 C   0  0
    3.8490   -7.1253    0.0000 C   0  0
    4.6946   -5.8864    0.0000 N   0  0
    4.0445   -4.5346    0.0000 C   0  0
    2.5536   -4.4230    0.0000 C   0  0
    1.8032   -3.1233    0.0000 N   0  0
    2.4133   -1.7530    0.0000 C   0  0
    3.8805   -1.4410    0.0000 O   0  0
    1.2990   -0.7500    0.0000 C   0  0  3  0  0  0
    1.2990    0.7500    0.0000 C   0  0
    0.0000    1.5000    0.0000 C   0  0
    0.0000    3.0000    0.0000 C   0  0
   -1.2991    3.7500    0.0000 C   0  0
   -1.2991    5.2500    0.0000 F   0  0
   -2.5981    3.0000    0.0000 C   0  0
   -3.8994    3.7477    0.0000 N   0  3
   -5.1974    2.9959    0.0000 O   0  0
   -3.9020    5.2477    0.0000 O   0  5
   -2.5981    1.5000    0.0000 C   0  0
   -1.2990    0.7500    0.0000 C   0  0
   -1.2990   -0.7500    0.0000 C   0  0
    0.0000   -1.5000    0.0000 N   0  0
    0.3114   -2.9665    0.0000 C   0  0
   -0.6923   -4.0811    0.0000 S   0  0
    1.7031   -5.6606    0.0000 C   0  0
    2.3532   -7.0124    0.0000 C   0  0
    1.5071   -8.2520    0.0000 C   0  0
    0.0113   -8.1401    0.0000 F   0  0
    2.1577   -9.6036    0.0000 F   0  0
    0.6621   -9.4913    0.0000 F   0  0
  1  2  3  0
  2  3  1  0
  3  4  2  0
  4  5  1  0
  5  6  2  0
  6  7  1  0
  7  8  1  0
  8  9  2  0
  8 10  1  0
 10 11  1  4
 11 12  1  0
 12 13  2  0
 13 14  1  0
 14 15  1  0
 14 16  2  0
 16 17  1  0
 17 18  2  0
 17 19  1  0
 16 20  1  0
 20 21  2  0
 21 12  1  0
 21 22  1  0
 22 23  1  0
 23 10  1  0
 23 24  1  0
 24  7  1  0
 24 25  2  0
  6 26  1  0
 26 27  2  0
 27  3  1  0
 27 28  1  0
 28 29  1  0
 28 30  1  0
 28 31  1  0
M  CHG  2  17   1  19  -1
M  END
> <assay_chembl_id>
CHEMBL4686001

> <assay_description>
Antiproliferative activity against human LNCaP cells assessed as reduction in cel viability after 72 hrs by MTT assay

> <document_journal>
Eur J Med Chem

> <molecule_chembl_id>
CHEMBL4744836

> <standard_value>
29000

> <IC50_uM>
29

> <Activity>
No

> <Canonical_Smiles>
N#Cc1ncc(N2C(=O)C3Cc4cc(F)c([N+](=O)[O-])cc4CN3C2=S)cc1C(F)(F)F

$$$$

  SciTegic03142313312D

 29 32  0  0  0  0            999 V2000
    5.1496   -9.8296    0.0000 N   0  0
    4.4995   -8.4778    0.0000 C   0  0
    3.8490   -7.1253    0.0000 C   0  0
    4.6946   -5.8864    0.0000 N   0  0
    4.0445   -4.5346    0.0000 C   0  0
    2.5536   -4.4230    0.0000 C   0  0
    1.8032   -3.1233    0.0000 N   0  0
    2.4133   -1.7530    0.0000 C   0  0
    3.8805   -1.4410    0.0000 O   0  0
    1.2990   -0.7500    0.0000 C   0  0  3  0  0  0
    1.2990    0.7500    0.0000 C   0  0
    0.0000    1.5000    0.0000 C   0  0
    0.0000    3.0000    0.0000 C   0  0
   -1.2991    3.7500    0.0000 C   0  0
   -1.2991    5.2500    0.0000 F   0  0
   -2.5981    3.0000    0.0000 C   0  0
   -3.8971    3.7500    0.0000 N   0  0
   -2.5981    1.5000    0.0000 C   0  0
   -1.2990    0.7500    0.0000 C   0  0
   -1.2990   -0.7500    0.0000 C   0  0
    0.0000   -1.5000    0.0000 N   0  0
    0.3114   -2.9665    0.0000 C   0  0
   -0.6923   -4.0811    0.0000 S   0  0
    1.7031   -5.6606    0.0000 C   0  0
    2.3532   -7.0124    0.0000 C   0  0
    1.5071   -8.2520    0.0000 C   0  0
    0.0113   -8.1401    0.0000 F   0  0
    2.1577   -9.6036    0.0000 F   0  0
    0.6621   -9.4913    0.0000 F   0  0
  1  2  3  0
  2  3  1  0
  3  4  2  0
  4  5  1  0
  5  6  2  0
  6  7  1  0
  7  8  1  0
  8  9  2  0
  8 10  1  0
 10 11  1  4
 11 12  1  0
 12 13  2  0
 13 14  1  0
 14 15  1  0
 14 16  2  0
 16 17  1  0
 16 18  1  0
 18 19  2  0
 19 12  1  0
 19 20  1  0
 20 21  1  0
 21 10  1  0
 21 22  1  0
 22  7  1  0
 22 23  2  0
  6 24  1  0
 24 25  2  0
 25  3  1  0
 25 26  1  0
 26 27  1  0
 26 28  1  0
 26 29  1  0
M  END
> <assay_chembl_id>
CHEMBL4686001

> <assay_description>
Antiproliferative activity against human LNCaP cells assessed as reduction in cel viability after 72 hrs by MTT assay

> <document_journal>
Eur J Med Chem

> <molecule_chembl_id>
CHEMBL4746710

> <standard_value>
32100

> <IC50_uM>
32.1

> <Activity>
No

> <Canonical_Smiles>
N#Cc1ncc(N2C(=O)C3Cc4cc(F)c(N)cc4CN3C2=S)cc1C(F)(F)F

$$$$

  SciTegic03142313312D

 32 35  0  0  0  0            999 V2000
    3.8964    0.7545    0.0000 C   0  0
    3.8990   -0.7455    0.0000 C   0  0
    5.1996   -1.4928    0.0000 O   0  0
    2.6003   -1.4977    0.0000 N   0  0
    1.2990   -0.7500    0.0000 C   0  0
    1.2990    0.7500    0.0000 C   0  0
    0.0000    1.5000    0.0000 C   0  0
   -1.2990    0.7500    0.0000 C   0  0
   -1.2990   -0.7500    0.0000 C   0  0
    0.0000   -1.5000    0.0000 C   0  0
    0.0000   -3.0000    0.0000 F   0  0
   -2.5981    1.5000    0.0000 C   0  0
   -2.5981    3.0000    0.0000 C   0  0  3  0  0  0
   -3.7124    4.0030    0.0000 C   0  0
   -5.1796    3.6910    0.0000 O   0  0
   -3.1023    5.3733    0.0000 N   0  0
   -3.8527    6.6730    0.0000 C   0  0
   -5.3435    6.7846    0.0000 C   0  0
   -5.9937    8.1363    0.0000 N   0  0
   -5.1480    9.3753    0.0000 C   0  0
   -5.7985   10.7278    0.0000 C   0  0
   -6.4487   12.0796    0.0000 N   0  0
   -3.6523    9.2624    0.0000 C   0  0
   -2.8062   10.5020    0.0000 C   0  0
   -3.4555   11.8542    0.0000 F   0  0
   -1.3105   10.3887    0.0000 F   0  0
   -1.9600   11.7405    0.0000 F   0  0
   -3.0022    7.9106    0.0000 C   0  0
   -1.6105    5.2165    0.0000 C   0  0
   -0.6067    6.3311    0.0000 S   0  0
   -1.2991    3.7500    0.0000 N   0  0
    0.0000    3.0000    0.0000 C   0  0
  1  2  1  0
  2  3  2  0
  2  4  1  0
  4  5  1  0
  5  6  2  0
  6  7  1  0
  7  8  2  0
  8  9  1  0
  9 10  2  0
 10  5  1  0
 10 11  1  0
  8 12  1  0
 13 12  1  4
 13 14  1  0
 14 15  2  0
 14 16  1  0
 16 17  1  0
 17 18  2  0
 18 19  1  0
 19 20  2  0
 20 21  1  0
 21 22  3  0
 20 23  1  0
 23 24  1  0
 24 25  1  0
 24 26  1  0
 24 27  1  0
 23 28  2  0
 28 17  1  0
 16 29  1  0
 29 30  2  0
 29 31  1  0
 31 13  1  0
 31 32  1  0
 32  7  1  0
M  END
> <assay_chembl_id>
CHEMBL4686001

> <assay_description>
Antiproliferative activity against human LNCaP cells assessed as reduction in cel viability after 72 hrs by MTT assay

> <document_journal>
Eur J Med Chem

> <molecule_chembl_id>
CHEMBL4785113

> <standard_value>
28300

> <IC50_uM>
28.3

> <Activity>
No

> <Canonical_Smiles>
CC(=O)Nc1cc2c(cc1F)CC1C(=O)N(c3cnc(C#N)c(C(F)(F)F)c3)C(=S)N1C2

$$$$

  SciTegic03142313312D

 33 36  0  0  0  0            999 V2000
    6.4983   -0.7414    0.0000 C   0  0
    5.2003   -1.4932    0.0000 C   0  0
    3.8990   -0.7455    0.0000 C   0  0
    3.8964    0.7545    0.0000 O   0  0
    2.6003   -1.4977    0.0000 N   0  0
    1.2990   -0.7500    0.0000 C   0  0
    1.2990    0.7500    0.0000 C   0  0
    0.0000    1.5000    0.0000 C   0  0
   -1.2990    0.7500    0.0000 C   0  0
   -1.2990   -0.7500    0.0000 C   0  0
    0.0000   -1.5000    0.0000 C   0  0
    0.0000   -3.0000    0.0000 F   0  0
   -2.5981    1.5000    0.0000 C   0  0
   -2.5981    3.0000    0.0000 C   0  0  3  0  0  0
   -3.7124    4.0030    0.0000 C   0  0
   -5.1796    3.6910    0.0000 O   0  0
   -3.1023    5.3733    0.0000 N   0  0
   -3.8527    6.6730    0.0000 C   0  0
   -5.3435    6.7846    0.0000 C   0  0
   -5.9937    8.1363    0.0000 N   0  0
   -5.1480    9.3753    0.0000 C   0  0
   -5.7985   10.7278    0.0000 C   0  0
   -6.4487   12.0796    0.0000 N   0  0
   -3.6523    9.2624    0.0000 C   0  0
   -2.8062   10.5020    0.0000 C   0  0
   -3.4555   11.8542    0.0000 F   0  0
   -1.3105   10.3887    0.0000 F   0  0
   -1.9600   11.7405    0.0000 F   0  0
   -3.0022    7.9106    0.0000 C   0  0
   -1.6105    5.2165    0.0000 C   0  0
   -0.6067    6.3311    0.0000 S   0  0
   -1.2991    3.7500    0.0000 N   0  0
    0.0000    3.0000    0.0000 C   0  0
  1  2  1  0
  2  3  1  0
  3  4  2  0
  3  5  1  0
  5  6  1  0
  6  7  2  0
  7  8  1  0
  8  9  2  0
  9 10  1  0
 10 11  2  0
 11  6  1  0
 11 12  1  0
  9 13  1  0
 14 13  1  4
 14 15  1  0
 15 16  2  0
 15 17  1  0
 17 18  1  0
 18 19  2  0
 19 20  1  0
 20 21  2  0
 21 22  1  0
 22 23  3  0
 21 24  1  0
 24 25  1  0
 25 26  1  0
 25 27  1  0
 25 28  1  0
 24 29  2  0
 29 18  1  0
 17 30  1  0
 30 31  2  0
 30 32  1  0
 32 14  1  0
 32 33  1  0
 33  8  1  0
M  END
> <assay_chembl_id>
CHEMBL4686001

> <assay_description>
Antiproliferative activity against human LNCaP cells assessed as reduction in cel viability after 72 hrs by MTT assay

> <document_journal>
Eur J Med Chem

> <molecule_chembl_id>
CHEMBL4762739

> <standard_value>
27700

> <IC50_uM>
27.7

> <Activity>
No

> <Canonical_Smiles>
CCC(=O)Nc1cc2c(cc1F)CC1C(=O)N(c3cnc(C#N)c(C(F)(F)F)c3)C(=S)N1C2

$$$$

  SciTegic03142313312D

 34 37  0  0  0  0            999 V2000
    7.7996   -1.4883    0.0000 C   0  0
    6.4990   -0.7409    0.0000 C   0  0
    5.2003   -1.4932    0.0000 C   0  0
    3.8990   -0.7455    0.0000 C   0  0
    3.8964    0.7545    0.0000 O   0  0
    2.6003   -1.4977    0.0000 N   0  0
    1.2990   -0.7500    0.0000 C   0  0
    1.2990    0.7500    0.0000 C   0  0
    0.0000    1.5000    0.0000 C   0  0
   -1.2990    0.7500    0.0000 C   0  0
   -1.2990   -0.7500    0.0000 C   0  0
    0.0000   -1.5000    0.0000 C   0  0
    0.0000   -3.0000    0.0000 F   0  0
   -2.5981    1.5000    0.0000 C   0  0
   -2.5981    3.0000    0.0000 C   0  0  3  0  0  0
   -3.7124    4.0030    0.0000 C   0  0
   -5.1796    3.6910    0.0000 O   0  0
   -3.1023    5.3733    0.0000 N   0  0
   -3.8527    6.6730    0.0000 C   0  0
   -5.3435    6.7846    0.0000 C   0  0
   -5.9937    8.1363    0.0000 N   0  0
   -5.1480    9.3753    0.0000 C   0  0
   -5.7985   10.7278    0.0000 C   0  0
   -6.4487   12.0796    0.0000 N   0  0
   -3.6523    9.2624    0.0000 C   0  0
   -2.8062   10.5020    0.0000 C   0  0
   -3.4555   11.8542    0.0000 F   0  0
   -1.3105   10.3887    0.0000 F   0  0
   -1.9600   11.7405    0.0000 F   0  0
   -3.0022    7.9106    0.0000 C   0  0
   -1.6105    5.2165    0.0000 C   0  0
   -0.6067    6.3311    0.0000 S   0  0
   -1.2991    3.7500    0.0000 N   0  0
    0.0000    3.0000    0.0000 C   0  0
  1  2  1  0
  2  3  1  0
  3  4  1  0
  4  5  2  0
  4  6  1  0
  6  7  1  0
  7  8  2  0
  8  9  1  0
  9 10  2  0
 10 11  1  0
 11 12  2  0
 12  7  1  0
 12 13  1  0
 10 14  1  0
 15 14  1  4
 15 16  1  0
 16 17  2  0
 16 18  1  0
 18 19  1  0
 19 20  2  0
 20 21  1  0
 21 22  2  0
 22 23  1  0
 23 24  3  0
 22 25  1  0
 25 26  1  0
 26 27  1  0
 26 28  1  0
 26 29  1  0
 25 30  2  0
 30 19  1  0
 18 31  1  0
 31 32  2  0
 31 33  1  0
 33 15  1  0
 33 34  1  0
 34  9  1  0
M  END
> <assay_chembl_id>
CHEMBL4686001

> <assay_description>
Antiproliferative activity against human LNCaP cells assessed as reduction in cel viability after 72 hrs by MTT assay

> <document_journal>
Eur J Med Chem

> <molecule_chembl_id>
CHEMBL4753830

> <standard_value>
27900

> <IC50_uM>
27.9

> <Activity>
No

> <Canonical_Smiles>
CCCC(=O)Nc1cc2c(cc1F)CC1C(=O)N(c3cnc(C#N)c(C(F)(F)F)c3)C(=S)N1C2

$$$$

  SciTegic03142313312D

 33 36  0  0  0  0            999 V2000
    3.8964    0.7545    0.0000 C   0  0
    3.8990   -0.7455    0.0000 S   0  0
    5.1996   -1.4928    0.0000 O   0  0
    5.1966    0.0070    0.0000 O   0  0
    2.6003   -1.4977    0.0000 N   0  0
    1.2990   -0.7500    0.0000 C   0  0
    1.2990    0.7500    0.0000 C   0  0
    0.0000    1.5000    0.0000 C   0  0
   -1.2990    0.7500    0.0000 C   0  0
   -1.2990   -0.7500    0.0000 C   0  0
    0.0000   -1.5000    0.0000 C   0  0
    0.0000   -3.0000    0.0000 F   0  0
   -2.5981    1.5000    0.0000 C   0  0
   -2.5981    3.0000    0.0000 C   0  0  3  0  0  0
   -3.7124    4.0030    0.0000 C   0  0
   -5.1796    3.6910    0.0000 O   0  0
   -3.1023    5.3733    0.0000 N   0  0
   -3.8527    6.6730    0.0000 C   0  0
   -5.3435    6.7846    0.0000 C   0  0
   -5.9937    8.1363    0.0000 N   0  0
   -5.1480    9.3753    0.0000 C   0  0
   -5.7985   10.7278    0.0000 C   0  0
   -6.4487   12.0796    0.0000 N   0  0
   -3.6523    9.2624    0.0000 C   0  0
   -2.8062   10.5020    0.0000 C   0  0
   -3.4555   11.8542    0.0000 F   0  0
   -1.3105   10.3887    0.0000 F   0  0
   -1.9600   11.7405    0.0000 F   0  0
   -3.0022    7.9106    0.0000 C   0  0
   -1.6105    5.2165    0.0000 C   0  0
   -0.6067    6.3311    0.0000 S   0  0
   -1.2991    3.7500    0.0000 N   0  0
    0.0000    3.0000    0.0000 C   0  0
  1  2  1  0
  2  3  2  0
  2  4  2  0
  2  5  1  0
  5  6  1  0
  6  7  2  0
  7  8  1  0
  8  9  2  0
  9 10  1  0
 10 11  2  0
 11  6  1  0
 11 12  1  0
  9 13  1  0
 14 13  1  4
 14 15  1  0
 15 16  2  0
 15 17  1  0
 17 18  1  0
 18 19  2  0
 19 20  1  0
 20 21  2  0
 21 22  1  0
 22 23  3  0
 21 24  1  0
 24 25  1  0
 25 26  1  0
 25 27  1  0
 25 28  1  0
 24 29  2  0
 29 18  1  0
 17 30  1  0
 30 31  2  0
 30 32  1  0
 32 14  1  0
 32 33  1  0
 33  8  1  0
M  END
> <assay_chembl_id>
CHEMBL4686001

> <assay_description>
Antiproliferative activity against human LNCaP cells assessed as reduction in cel viability after 72 hrs by MTT assay

> <document_journal>
Eur J Med Chem

> <molecule_chembl_id>
CHEMBL4747097

> <standard_value>
79000

> <IC50_uM>
79

> <Activity>
No

> <Canonical_Smiles>
CS(=O)(=O)Nc1cc2c(cc1F)CC1C(=O)N(c3cnc(C#N)c(C(F)(F)F)c3)C(=S)N1C2

$$$$

  SciTegic03142313312D

 31 34  0  0  0  0            999 V2000
    1.2948   -3.7516    0.0000 C   0  0
    2.5951   -3.0039    0.0000 C   0  0
    3.8926   -3.7566    0.0000 O   0  0
    2.5973   -1.5031    0.0000 N   0  0
    1.2990   -0.7500    0.0000 C   0  0
    1.2990    0.7500    0.0000 C   0  0
    0.0000    1.5000    0.0000 C   0  0
   -1.2990    0.7500    0.0000 C   0  0
   -1.2990   -0.7500    0.0000 C   0  0
    0.0000   -1.5000    0.0000 C   0  0
   -2.5981   -1.5000    0.0000 N   0  0
   -2.9095   -2.9665    0.0000 C   0  0
   -1.9057   -4.0811    0.0000 S   0  0
   -4.4013   -3.1233    0.0000 N   0  0
   -5.1517   -4.4230    0.0000 C   0  0
   -4.5029   -5.7699    0.0000 C   0  0
   -5.3485   -7.0088    0.0000 N   0  0
   -6.8443   -6.8960    0.0000 C   0  0
   -7.6903   -8.1356    0.0000 C   0  0
   -8.5360   -9.3745    0.0000 N   0  0
   -7.4944   -5.5442    0.0000 C   0  0
   -8.9910   -5.4313    0.0000 C   0  0
   -9.8374   -6.6696    0.0000 F   0  0
   -9.6407   -4.0793    0.0000 F   0  0
  -10.4867   -5.3177    0.0000 F   0  0
   -6.6488   -4.3053    0.0000 C   0  0
   -5.0114   -1.7530    0.0000 C   0  0
   -6.4786   -1.4410    0.0000 O   0  0
   -3.8971   -0.7500    0.0000 C   0  0  3  0  0  0
   -3.8971    0.7500    0.0000 C   0  0
   -2.5981    1.5000    0.0000 C   0  0
  1  2  1  0
  2  3  2  0
  2  4  1  0
  4  5  1  0
  5  6  2  0
  6  7  1  0
  7  8  2  0
  8  9  1  0
  9 10  2  0
 10  5  1  0
  9 11  1  0
 11 12  1  0
 12 13  2  0
 12 14  1  0
 14 15  1  0
 15 16  2  0
 16 17  1  0
 17 18  2  0
 18 19  1  0
 19 20  3  0
 18 21  1  0
 21 22  1  0
 22 23  1  0
 22 24  1  0
 22 25  1  0
 21 26  2  0
 26 15  1  0
 14 27  1  0
 27 28  2  0
 27 29  1  0
 29 11  1  0
 29 30  1  4
 30 31  1  0
 31  8  1  0
M  END
> <assay_chembl_id>
CHEMBL4686001

> <assay_description>
Antiproliferative activity against human LNCaP cells assessed as reduction in cel viability after 72 hrs by MTT assay

> <document_journal>
Eur J Med Chem

> <molecule_chembl_id>
CHEMBL4747326

> <standard_value>
89700

> <IC50_uM>
89.7

> <Activity>
No

> <Canonical_Smiles>
CC(=O)Nc1ccc2c(c1)N1C(=S)N(c3cnc(C#N)c(C(F)(F)F)c3)C(=O)C1CC2

$$$$

  SciTegic03142313312D

 32 35  0  0  0  0            999 V2000
    3.8912   -5.2570    0.0000 C   0  0
    3.8933   -3.7570    0.0000 C   0  0
    2.5951   -3.0039    0.0000 C   0  0
    1.2948   -3.7516    0.0000 O   0  0
    2.5973   -1.5031    0.0000 N   0  0
    1.2990   -0.7500    0.0000 C   0  0
    1.2990    0.7500    0.0000 C   0  0
    0.0000    1.5000    0.0000 C   0  0
   -1.2990    0.7500    0.0000 C   0  0
   -1.2990   -0.7500    0.0000 C   0  0
    0.0000   -1.5000    0.0000 C   0  0
   -2.5981   -1.5000    0.0000 N   0  0
   -2.9095   -2.9665    0.0000 C   0  0
   -1.9057   -4.0811    0.0000 S   0  0
   -4.4013   -3.1233    0.0000 N   0  0
   -5.1517   -4.4230    0.0000 C   0  0
   -4.5029   -5.7699    0.0000 C   0  0
   -5.3485   -7.0088    0.0000 N   0  0
   -6.8443   -6.8960    0.0000 C   0  0
   -7.6903   -8.1356    0.0000 C   0  0
   -8.5360   -9.3745    0.0000 N   0  0
   -7.4944   -5.5442    0.0000 C   0  0
   -8.9910   -5.4313    0.0000 C   0  0
   -9.8374   -6.6696    0.0000 F   0  0
   -9.6407   -4.0793    0.0000 F   0  0
  -10.4867   -5.3177    0.0000 F   0  0
   -6.6488   -4.3053    0.0000 C   0  0
   -5.0114   -1.7530    0.0000 C   0  0
   -6.4786   -1.4410    0.0000 O   0  0
   -3.8971   -0.7500    0.0000 C   0  0  3  0  0  0
   -3.8971    0.7500    0.0000 C   0  0
   -2.5981    1.5000    0.0000 C   0  0
  1  2  1  0
  2  3  1  0
  3  4  2  0
  3  5  1  0
  5  6  1  0
  6  7  2  0
  7  8  1  0
  8  9  2  0
  9 10  1  0
 10 11  2  0
 11  6  1  0
 10 12  1  0
 12 13  1  0
 13 14  2  0
 13 15  1  0
 15 16  1  0
 16 17  2  0
 17 18  1  0
 18 19  2  0
 19 20  1  0
 20 21  3  0
 19 22  1  0
 22 23  1  0
 23 24  1  0
 23 25  1  0
 23 26  1  0
 22 27  2  0
 27 16  1  0
 15 28  1  0
 28 29  2  0
 28 30  1  0
 30 12  1  0
 30 31  1  4
 31 32  1  0
 32  9  1  0
M  END
> <assay_chembl_id>
CHEMBL4686001

> <assay_description>
Antiproliferative activity against human LNCaP cells assessed as reduction in cel viability after 72 hrs by MTT assay

> <document_journal>
Eur J Med Chem

> <molecule_chembl_id>
CHEMBL4749354

> <standard_value>
48800

> <IC50_uM>
48.8

> <Activity>
No

> <Canonical_Smiles>
CCC(=O)Nc1ccc2c(c1)N1C(=S)N(c3cnc(C#N)c(C(F)(F)F)c3)C(=O)C1CC2

$$$$

  SciTegic03142313312D

 33 36  0  0  0  0            999 V2000
    5.1887   -6.0105    0.0000 C   0  0
    3.8912   -5.2578    0.0000 C   0  0
    3.8933   -3.7570    0.0000 C   0  0
    2.5951   -3.0039    0.0000 C   0  0
    1.2948   -3.7516    0.0000 O   0  0
    2.5973   -1.5031    0.0000 N   0  0
    1.2990   -0.7500    0.0000 C   0  0
    1.2990    0.7500    0.0000 C   0  0
    0.0000    1.5000    0.0000 C   0  0
   -1.2990    0.7500    0.0000 C   0  0
   -1.2990   -0.7500    0.0000 C   0  0
    0.0000   -1.5000    0.0000 C   0  0
   -2.5981   -1.5000    0.0000 N   0  0
   -2.9095   -2.9665    0.0000 C   0  0
   -1.9057   -4.0811    0.0000 S   0  0
   -4.4013   -3.1233    0.0000 N   0  0
   -5.1517   -4.4230    0.0000 C   0  0
   -4.5029   -5.7699    0.0000 C   0  0
   -5.3485   -7.0088    0.0000 N   0  0
   -6.8443   -6.8960    0.0000 C   0  0
   -7.6903   -8.1356    0.0000 C   0  0
   -8.5360   -9.3745    0.0000 N   0  0
   -7.4944   -5.5442    0.0000 C   0  0
   -8.9910   -5.4313    0.0000 C   0  0
   -9.8374   -6.6696    0.0000 F   0  0
   -9.6407   -4.0793    0.0000 F   0  0
  -10.4867   -5.3177    0.0000 F   0  0
   -6.6488   -4.3053    0.0000 C   0  0
   -5.0114   -1.7530    0.0000 C   0  0
   -6.4786   -1.4410    0.0000 O   0  0
   -3.8971   -0.7500    0.0000 C   0  0  3  0  0  0
   -3.8971    0.7500    0.0000 C   0  0
   -2.5981    1.5000    0.0000 C   0  0
  1  2  1  0
  2  3  1  0
  3  4  1  0
  4  5  2  0
  4  6  1  0
  6  7  1  0
  7  8  2  0
  8  9  1  0
  9 10  2  0
 10 11  1  0
 11 12  2  0
 12  7  1  0
 11 13  1  0
 13 14  1  0
 14 15  2  0
 14 16  1  0
 16 17  1  0
 17 18  2  0
 18 19  1  0
 19 20  2  0
 20 21  1  0
 21 22  3  0
 20 23  1  0
 23 24  1  0
 24 25  1  0
 24 26  1  0
 24 27  1  0
 23 28  2  0
 28 17  1  0
 16 29  1  0
 29 30  2  0
 29 31  1  0
 31 13  1  0
 31 32  1  4
 32 33  1  0
 33 10  1  0
M  END
> <assay_chembl_id>
CHEMBL4686001

> <assay_description>
Antiproliferative activity against human LNCaP cells assessed as reduction in cel viability after 72 hrs by MTT assay

> <document_journal>
Eur J Med Chem

> <molecule_chembl_id>
CHEMBL4746330

> <standard_value>
46000

> <IC50_uM>
46

> <Activity>
No

> <Canonical_Smiles>
CCCC(=O)Nc1ccc2c(c1)N1C(=S)N(c3cnc(C#N)c(C(F)(F)F)c3)C(=O)C1CC2

$$$$

  SciTegic03142313312D

 35 38  0  0  0  0            999 V2000
    5.1873   -7.5109    0.0000 C   0  0
    5.1894   -6.0109    0.0000 C   0  0
    3.8912   -5.2578    0.0000 C   0  0
    3.8933   -3.7570    0.0000 C   0  0
    2.5951   -3.0039    0.0000 S   0  0
    1.2948   -3.7516    0.0000 O   0  0
    2.5923   -4.5039    0.0000 O   0  0
    2.5973   -1.5031    0.0000 N   0  0
    1.2990   -0.7500    0.0000 C   0  0
    1.2990    0.7500    0.0000 C   0  0
    0.0000    1.5000    0.0000 C   0  0
   -1.2990    0.7500    0.0000 C   0  0
   -1.2990   -0.7500    0.0000 C   0  0
    0.0000   -1.5000    0.0000 C   0  0
   -2.5981   -1.5000    0.0000 N   0  0
   -2.9095   -2.9665    0.0000 C   0  0
   -1.9057   -4.0811    0.0000 S   0  0
   -4.4013   -3.1233    0.0000 N   0  0
   -5.1517   -4.4230    0.0000 C   0  0
   -4.5029   -5.7699    0.0000 C   0  0
   -5.3485   -7.0088    0.0000 N   0  0
   -6.8443   -6.8960    0.0000 C   0  0
   -7.6903   -8.1356    0.0000 C   0  0
   -8.5360   -9.3745    0.0000 N   0  0
   -7.4944   -5.5442    0.0000 C   0  0
   -8.9910   -5.4313    0.0000 C   0  0
   -9.8374   -6.6696    0.0000 F   0  0
   -9.6407   -4.0793    0.0000 F   0  0
  -10.4867   -5.3177    0.0000 F   0  0
   -6.6488   -4.3053    0.0000 C   0  0
   -5.0114   -1.7530    0.0000 C   0  0
   -6.4786   -1.4410    0.0000 O   0  0
   -3.8971   -0.7500    0.0000 C   0  0  3  0  0  0
   -3.8971    0.7500    0.0000 C   0  0
   -2.5981    1.5000    0.0000 C   0  0
  1  2  1  0
  2  3  1  0
  3  4  1  0
  4  5  1  0
  5  6  2  0
  5  7  2  0
  5  8  1  0
  8  9  1  0
  9 10  2  0
 10 11  1  0
 11 12  2  0
 12 13  1  0
 13 14  2  0
 14  9  1  0
 13 15  1  0
 15 16  1  0
 16 17  2  0
 16 18  1  0
 18 19  1  0
 19 20  2  0
 20 21  1  0
 21 22  2  0
 22 23  1  0
 23 24  3  0
 22 25  1  0
 25 26  1  0
 26 27  1  0
 26 28  1  0
 26 29  1  0
 25 30  2  0
 30 19  1  0
 18 31  1  0
 31 32  2  0
 31 33  1  0
 33 15  1  0
 33 34  1  4
 34 35  1  0
 35 12  1  0
M  END
> <assay_chembl_id>
CHEMBL4686001

> <assay_description>
Antiproliferative activity against human LNCaP cells assessed as reduction in cel viability after 72 hrs by MTT assay

> <document_journal>
Eur J Med Chem

> <molecule_chembl_id>
CHEMBL4751937

> <standard_value>
48700

> <IC50_uM>
48.7

> <Activity>
No

> <Canonical_Smiles>
CCCCS(=O)(=O)Nc1ccc2c(c1)N1C(=S)N(c3cnc(C#N)c(C(F)(F)F)c3)C(=O)C1CC2

$$$$

  SciTegic03142313312D

 33 36  0  0  0  0            999 V2000
    5.1887   -6.0105    0.0000 C   0  0
    3.8912   -5.2578    0.0000 C   0  0
    3.8933   -3.7570    0.0000 O   0  0
    2.5951   -3.0039    0.0000 C   0  0
    1.2948   -3.7516    0.0000 O   0  0
    2.5973   -1.5031    0.0000 N   0  0
    1.2990   -0.7500    0.0000 C   0  0
    1.2990    0.7500    0.0000 C   0  0
    0.0000    1.5000    0.0000 C   0  0
   -1.2990    0.7500    0.0000 C   0  0
   -1.2990   -0.7500    0.0000 C   0  0
    0.0000   -1.5000    0.0000 C   0  0
   -2.5981   -1.5000    0.0000 N   0  0
   -2.9095   -2.9665    0.0000 C   0  0
   -1.9057   -4.0811    0.0000 S   0  0
   -4.4013   -3.1233    0.0000 N   0  0
   -5.1517   -4.4230    0.0000 C   0  0
   -4.5029   -5.7699    0.0000 C   0  0
   -5.3485   -7.0088    0.0000 N   0  0
   -6.8443   -6.8960    0.0000 C   0  0
   -7.6903   -8.1356    0.0000 C   0  0
   -8.5360   -9.3745    0.0000 N   0  0
   -7.4944   -5.5442    0.0000 C   0  0
   -8.9910   -5.4313    0.0000 C   0  0
   -9.8374   -6.6696    0.0000 F   0  0
   -9.6407   -4.0793    0.0000 F   0  0
  -10.4867   -5.3177    0.0000 F   0  0
   -6.6488   -4.3053    0.0000 C   0  0
   -5.0114   -1.7530    0.0000 C   0  0
   -6.4786   -1.4410    0.0000 O   0  0
   -3.8971   -0.7500    0.0000 C   0  0  3  0  0  0
   -3.8971    0.7500    0.0000 C   0  0
   -2.5981    1.5000    0.0000 C   0  0
  1  2  1  0
  2  3  1  0
  3  4  1  0
  4  5  2  0
  4  6  1  0
  6  7  1  0
  7  8  2  0
  8  9  1  0
  9 10  2  0
 10 11  1  0
 11 12  2  0
 12  7  1  0
 11 13  1  0
 13 14  1  0
 14 15  2  0
 14 16  1  0
 16 17  1  0
 17 18  2  0
 18 19  1  0
 19 20  2  0
 20 21  1  0
 21 22  3  0
 20 23  1  0
 23 24  1  0
 24 25  1  0
 24 26  1  0
 24 27  1  0
 23 28  2  0
 28 17  1  0
 16 29  1  0
 29 30  2  0
 29 31  1  0
 31 13  1  0
 31 32  1  4
 32 33  1  0
 33 10  1  0
M  END
> <assay_chembl_id>
CHEMBL4686001

> <assay_description>
Antiproliferative activity against human LNCaP cells assessed as reduction in cel viability after 72 hrs by MTT assay

> <document_journal>
Eur J Med Chem

> <molecule_chembl_id>
CHEMBL4783690

> <standard_value>
35700

> <IC50_uM>
35.7

> <Activity>
No

> <Canonical_Smiles>
CCOC(=O)Nc1ccc2c(c1)N1C(=S)N(c3cnc(C#N)c(C(F)(F)F)c3)C(=O)C1CC2

$$$$

  SciTegic03142313312D

 31 34  0  0  0  0            999 V2000
    1.2948   -3.7516    0.0000 C   0  0
    2.5951   -3.0039    0.0000 C   0  0
    3.8926   -3.7566    0.0000 O   0  0
    2.5973   -1.5031    0.0000 N   0  0
    1.2990   -0.7500    0.0000 C   0  0
    1.2990    0.7500    0.0000 C   0  0
    0.0000    1.5000    0.0000 C   0  0
   -1.2990    0.7500    0.0000 C   0  0
   -1.2990   -0.7500    0.0000 C   0  0
    0.0000   -1.5000    0.0000 C   0  0
   -2.5981   -1.5000    0.0000 C   0  0
   -3.8971   -0.7500    0.0000 C   0  0
   -3.8971    0.7500    0.0000 C   0  0  3  0  0  0
   -5.0114    1.7529    0.0000 C   0  0
   -6.4786    1.4409    0.0000 O   0  0
   -4.4013    3.1233    0.0000 N   0  0
   -5.1517    4.4230    0.0000 C   0  0
   -6.6426    4.5346    0.0000 C   0  0
   -7.2927    5.8863    0.0000 N   0  0
   -6.4471    7.1253    0.0000 C   0  0
   -7.0976    8.4778    0.0000 C   0  0
   -7.7477    9.8296    0.0000 N   0  0
   -4.9513    7.0124    0.0000 C   0  0
   -4.1052    8.2520    0.0000 C   0  0
   -4.7545    9.6042    0.0000 F   0  0
   -2.6095    8.1387    0.0000 F   0  0
   -3.2590    9.4905    0.0000 F   0  0
   -4.3012    5.6606    0.0000 C   0  0
   -2.9095    2.9665    0.0000 C   0  0
   -1.9057    4.0811    0.0000 S   0  0
   -2.5981    1.5000    0.0000 N   0  0
  1  2  1  0
  2  3  2  0
  2  4  1  0
  4  5  1  0
  5  6  2  0
  6  7  1  0
  7  8  2  0
  8  9  1  0
  9 10  2  0
 10  5  1  0
  9 11  1  0
 11 12  1  0
 13 12  1  4
 13 14  1  0
 14 15  2  0
 14 16  1  0
 16 17  1  0
 17 18  2  0
 18 19  1  0
 19 20  2  0
 20 21  1  0
 21 22  3  0
 20 23  1  0
 23 24  1  0
 24 25  1  0
 24 26  1  0
 24 27  1  0
 23 28  2  0
 28 17  1  0
 16 29  1  0
 29 30  2  0
 29 31  1  0
 31  8  1  0
 31 13  1  0
M  END
> <assay_chembl_id>
CHEMBL4686001

> <assay_description>
Antiproliferative activity against human LNCaP cells assessed as reduction in cel viability after 72 hrs by MTT assay

> <document_journal>
Eur J Med Chem

> <molecule_chembl_id>
CHEMBL4761470

> <standard_value>
41200

> <IC50_uM>
41.2

> <Activity>
No

> <Canonical_Smiles>
CC(=O)Nc1ccc2c(c1)CCC1C(=O)N(c3cnc(C#N)c(C(F)(F)F)c3)C(=S)N21

$$$$

  SciTegic03142313312D

 32 35  0  0  0  0            999 V2000
    3.8912   -5.2570    0.0000 C   0  0
    3.8933   -3.7570    0.0000 C   0  0
    2.5951   -3.0039    0.0000 C   0  0
    1.2948   -3.7516    0.0000 O   0  0
    2.5973   -1.5031    0.0000 N   0  0
    1.2990   -0.7500    0.0000 C   0  0
    1.2990    0.7500    0.0000 C   0  0
    0.0000    1.5000    0.0000 C   0  0
   -1.2990    0.7500    0.0000 C   0  0
   -1.2990   -0.7500    0.0000 C   0  0
    0.0000   -1.5000    0.0000 C   0  0
   -2.5981   -1.5000    0.0000 C   0  0
   -3.8971   -0.7500    0.0000 C   0  0
   -3.8971    0.7500    0.0000 C   0  0  3  0  0  0
   -5.0114    1.7529    0.0000 C   0  0
   -6.4786    1.4409    0.0000 O   0  0
   -4.4013    3.1233    0.0000 N   0  0
   -5.1517    4.4230    0.0000 C   0  0
   -6.6426    4.5346    0.0000 C   0  0
   -7.2927    5.8863    0.0000 N   0  0
   -6.4471    7.1253    0.0000 C   0  0
   -7.0976    8.4778    0.0000 C   0  0
   -7.7477    9.8296    0.0000 N   0  0
   -4.9513    7.0124    0.0000 C   0  0
   -4.1052    8.2520    0.0000 C   0  0
   -4.7545    9.6042    0.0000 F   0  0
   -2.6095    8.1387    0.0000 F   0  0
   -3.2590    9.4905    0.0000 F   0  0
   -4.3012    5.6606    0.0000 C   0  0
   -2.9095    2.9665    0.0000 C   0  0
   -1.9057    4.0811    0.0000 S   0  0
   -2.5981    1.5000    0.0000 N   0  0
  1  2  1  0
  2  3  1  0
  3  4  2  0
  3  5  1  0
  5  6  1  0
  6  7  2  0
  7  8  1  0
  8  9  2  0
  9 10  1  0
 10 11  2  0
 11  6  1  0
 10 12  1  0
 12 13  1  0
 14 13  1  4
 14 15  1  0
 15 16  2  0
 15 17  1  0
 17 18  1  0
 18 19  2  0
 19 20  1  0
 20 21  2  0
 21 22  1  0
 22 23  3  0
 21 24  1  0
 24 25  1  0
 25 26  1  0
 25 27  1  0
 25 28  1  0
 24 29  2  0
 29 18  1  0
 17 30  1  0
 30 31  2  0
 30 32  1  0
 32  9  1  0
 32 14  1  0
M  END
> <assay_chembl_id>
CHEMBL4686001

> <assay_description>
Antiproliferative activity against human LNCaP cells assessed as reduction in cel viability after 72 hrs by MTT assay

> <document_journal>
Eur J Med Chem

> <molecule_chembl_id>
CHEMBL4795696

> <standard_value>
39900

> <IC50_uM>
39.9

> <Activity>
No

> <Canonical_Smiles>
CCC(=O)Nc1ccc2c(c1)CCC1C(=O)N(c3cnc(C#N)c(C(F)(F)F)c3)C(=S)N21

$$$$

  SciTegic03142313312D

 33 36  0  0  0  0            999 V2000
    5.1887   -6.0105    0.0000 C   0  0
    3.8912   -5.2578    0.0000 C   0  0
    3.8933   -3.7570    0.0000 C   0  0
    2.5951   -3.0039    0.0000 C   0  0
    1.2948   -3.7516    0.0000 O   0  0
    2.5973   -1.5031    0.0000 N   0  0
    1.2990   -0.7500    0.0000 C   0  0
    1.2990    0.7500    0.0000 C   0  0
    0.0000    1.5000    0.0000 C   0  0
   -1.2990    0.7500    0.0000 C   0  0
   -1.2990   -0.7500    0.0000 C   0  0
    0.0000   -1.5000    0.0000 C   0  0
   -2.5981   -1.5000    0.0000 C   0  0
   -3.8971   -0.7500    0.0000 C   0  0
   -3.8971    0.7500    0.0000 C   0  0  3  0  0  0
   -5.0114    1.7529    0.0000 C   0  0
   -6.4786    1.4409    0.0000 O   0  0
   -4.4013    3.1233    0.0000 N   0  0
   -5.1517    4.4230    0.0000 C   0  0
   -6.6426    4.5346    0.0000 C   0  0
   -7.2927    5.8863    0.0000 N   0  0
   -6.4471    7.1253    0.0000 C   0  0
   -7.0976    8.4778    0.0000 C   0  0
   -7.7477    9.8296    0.0000 N   0  0
   -4.9513    7.0124    0.0000 C   0  0
   -4.1052    8.2520    0.0000 C   0  0
   -4.7545    9.6042    0.0000 F   0  0
   -2.6095    8.1387    0.0000 F   0  0
   -3.2590    9.4905    0.0000 F   0  0
   -4.3012    5.6606    0.0000 C   0  0
   -2.9095    2.9665    0.0000 C   0  0
   -1.9057    4.0811    0.0000 S   0  0
   -2.5981    1.5000    0.0000 N   0  0
  1  2  1  0
  2  3  1  0
  3  4  1  0
  4  5  2  0
  4  6  1  0
  6  7  1  0
  7  8  2  0
  8  9  1  0
  9 10  2  0
 10 11  1  0
 11 12  2  0
 12  7  1  0
 11 13  1  0
 13 14  1  0
 15 14  1  4
 15 16  1  0
 16 17  2  0
 16 18  1  0
 18 19  1  0
 19 20  2  0
 20 21  1  0
 21 22  2  0
 22 23  1  0
 23 24  3  0
 22 25  1  0
 25 26  1  0
 26 27  1  0
 26 28  1  0
 26 29  1  0
 25 30  2  0
 30 19  1  0
 18 31  1  0
 31 32  2  0
 31 33  1  0
 33 10  1  0
 33 15  1  0
M  END
> <assay_chembl_id>
CHEMBL4686001

> <assay_description>
Antiproliferative activity against human LNCaP cells assessed as reduction in cel viability after 72 hrs by MTT assay

> <document_journal>
Eur J Med Chem

> <molecule_chembl_id>
CHEMBL4794414

> <standard_value>
32500

> <IC50_uM>
32.5

> <Activity>
No

> <Canonical_Smiles>
CCCC(=O)Nc1ccc2c(c1)CCC1C(=O)N(c3cnc(C#N)c(C(F)(F)F)c3)C(=S)N21

$$$$

  SciTegic03142313312D

 35 38  0  0  0  0            999 V2000
    5.1873   -7.5109    0.0000 C   0  0
    5.1894   -6.0109    0.0000 C   0  0
    3.8912   -5.2578    0.0000 C   0  0
    3.8933   -3.7570    0.0000 C   0  0
    2.5951   -3.0039    0.0000 S   0  0
    1.2948   -3.7516    0.0000 O   0  0
    2.5923   -4.5039    0.0000 O   0  0
    2.5973   -1.5031    0.0000 N   0  0
    1.2990   -0.7500    0.0000 C   0  0
    1.2990    0.7500    0.0000 C   0  0
    0.0000    1.5000    0.0000 C   0  0
   -1.2990    0.7500    0.0000 C   0  0
   -1.2990   -0.7500    0.0000 C   0  0
    0.0000   -1.5000    0.0000 C   0  0
   -2.5981   -1.5000    0.0000 C   0  0
   -3.8971   -0.7500    0.0000 C   0  0
   -3.8971    0.7500    0.0000 C   0  0  3  0  0  0
   -5.0114    1.7529    0.0000 C   0  0
   -6.4786    1.4409    0.0000 O   0  0
   -4.4013    3.1233    0.0000 N   0  0
   -5.1517    4.4230    0.0000 C   0  0
   -6.6426    4.5346    0.0000 C   0  0
   -7.2927    5.8863    0.0000 N   0  0
   -6.4471    7.1253    0.0000 C   0  0
   -7.0976    8.4778    0.0000 C   0  0
   -7.7477    9.8296    0.0000 N   0  0
   -4.9513    7.0124    0.0000 C   0  0
   -4.1052    8.2520    0.0000 C   0  0
   -4.7545    9.6042    0.0000 F   0  0
   -2.6095    8.1387    0.0000 F   0  0
   -3.2590    9.4905    0.0000 F   0  0
   -4.3012    5.6606    0.0000 C   0  0
   -2.9095    2.9665    0.0000 C   0  0
   -1.9057    4.0811    0.0000 S   0  0
   -2.5981    1.5000    0.0000 N   0  0
  1  2  1  0
  2  3  1  0
  3  4  1  0
  4  5  1  0
  5  6  2  0
  5  7  2  0
  5  8  1  0
  8  9  1  0
  9 10  2  0
 10 11  1  0
 11 12  2  0
 12 13  1  0
 13 14  2  0
 14  9  1  0
 13 15  1  0
 15 16  1  0
 17 16  1  4
 17 18  1  0
 18 19  2  0
 18 20  1  0
 20 21  1  0
 21 22  2  0
 22 23  1  0
 23 24  2  0
 24 25  1  0
 25 26  3  0
 24 27  1  0
 27 28  1  0
 28 29  1  0
 28 30  1  0
 28 31  1  0
 27 32  2  0
 32 21  1  0
 20 33  1  0
 33 34  2  0
 33 35  1  0
 35 12  1  0
 35 17  1  0
M  END
> <assay_chembl_id>
CHEMBL4686001

> <assay_description>
Antiproliferative activity against human LNCaP cells assessed as reduction in cel viability after 72 hrs by MTT assay

> <document_journal>
Eur J Med Chem

> <molecule_chembl_id>
CHEMBL4797257

> <standard_value>
54700

> <IC50_uM>
54.7

> <Activity>
No

> <Canonical_Smiles>
CCCCS(=O)(=O)Nc1ccc2c(c1)CCC1C(=O)N(c3cnc(C#N)c(C(F)(F)F)c3)C(=S)N21

$$$$

  SciTegic03142313312D

 33 36  0  0  0  0            999 V2000
    5.1887   -6.0105    0.0000 C   0  0
    3.8912   -5.2578    0.0000 C   0  0
    3.8933   -3.7570    0.0000 O   0  0
    2.5951   -3.0039    0.0000 C   0  0
    1.2948   -3.7516    0.0000 O   0  0
    2.5973   -1.5031    0.0000 N   0  0
    1.2990   -0.7500    0.0000 C   0  0
    1.2990    0.7500    0.0000 C   0  0
    0.0000    1.5000    0.0000 C   0  0
   -1.2990    0.7500    0.0000 C   0  0
   -1.2990   -0.7500    0.0000 C   0  0
    0.0000   -1.5000    0.0000 C   0  0
   -2.5981   -1.5000    0.0000 C   0  0
   -3.8971   -0.7500    0.0000 C   0  0
   -3.8971    0.7500    0.0000 C   0  0  3  0  0  0
   -5.0114    1.7529    0.0000 C   0  0
   -6.4786    1.4409    0.0000 O   0  0
   -4.4013    3.1233    0.0000 N   0  0
   -5.1517    4.4230    0.0000 C   0  0
   -6.6426    4.5346    0.0000 C   0  0
   -7.2927    5.8863    0.0000 N   0  0
   -6.4471    7.1253    0.0000 C   0  0
   -7.0976    8.4778    0.0000 C   0  0
   -7.7477    9.8296    0.0000 N   0  0
   -4.9513    7.0124    0.0000 C   0  0
   -4.1052    8.2520    0.0000 C   0  0
   -4.7545    9.6042    0.0000 F   0  0
   -2.6095    8.1387    0.0000 F   0  0
   -3.2590    9.4905    0.0000 F   0  0
   -4.3012    5.6606    0.0000 C   0  0
   -2.9095    2.9665    0.0000 C   0  0
   -1.9057    4.0811    0.0000 S   0  0
   -2.5981    1.5000    0.0000 N   0  0
  1  2  1  0
  2  3  1  0
  3  4  1  0
  4  5  2  0
  4  6  1  0
  6  7  1  0
  7  8  2  0
  8  9  1  0
  9 10  2  0
 10 11  1  0
 11 12  2  0
 12  7  1  0
 11 13  1  0
 13 14  1  0
 15 14  1  4
 15 16  1  0
 16 17  2  0
 16 18  1  0
 18 19  1  0
 19 20  2  0
 20 21  1  0
 21 22  2  0
 22 23  1  0
 23 24  3  0
 22 25  1  0
 25 26  1  0
 26 27  1  0
 26 28  1  0
 26 29  1  0
 25 30  2  0
 30 19  1  0
 18 31  1  0
 31 32  2  0
 31 33  1  0
 33 10  1  0
 33 15  1  0
M  END
> <assay_chembl_id>
CHEMBL4686001

> <assay_description>
Antiproliferative activity against human LNCaP cells assessed as reduction in cel viability after 72 hrs by MTT assay

> <document_journal>
Eur J Med Chem

> <molecule_chembl_id>
CHEMBL4783767

> <standard_value>
23700

> <IC50_uM>
23.7

> <Activity>
No

> <Canonical_Smiles>
CCOC(=O)Nc1ccc2c(c1)CCC1C(=O)N(c3cnc(C#N)c(C(F)(F)F)c3)C(=S)N21

$$$$

  SciTegic03142313312D

 39 43  0  0  0  0            999 V2000
   10.3948    8.9612    0.0000 C   0  0
    9.0959    8.2109    0.0000 O   0  0
    9.0953    6.7101    0.0000 C   0  0
   10.3942    5.9599    0.0000 O   0  0
    7.7957    5.9595    0.0000 C   0  0
    7.7928    4.4594    0.0000 C   0  0
    6.4924    3.7119    0.0000 C   0  0
    5.1947    4.4643    0.0000 C   0  0
    3.8950    3.7137    0.0000 C   0  0
    3.8943    2.2128    0.0000 N   0  0
    2.5965    1.4608    0.0000 C   0  0
    2.5989   -0.0392    0.0000 C   0  0
    3.8990   -0.7455    0.0000 C   0  0
    5.1994   -1.4932    0.0000 O   0  0
    2.6003   -1.4977    0.0000 C   0  0
    1.2990   -0.7500    0.0000 N   0  0
    1.2990    0.7500    0.0000 C   0  0
    0.0000    1.5000    0.0000 N   0  0
   -1.2990    0.7500    0.0000 C   0  0
   -2.7248    1.2135    0.0000 C   0  0
   -3.1884    2.6408    0.0000 C   0  0
   -2.2738    3.8234    0.0000 C   0  0
   -2.8433    5.2111    0.0000 C   0  0
   -4.3298    5.4117    0.0000 C   0  0
   -4.9025    6.7990    0.0000 C   0  0
   -6.3893    6.9975    0.0000 N   0  0
   -5.2468    4.2247    0.0000 C   0  0
   -4.6773    2.8370    0.0000 C   0  0
   -3.6065    0.0000    0.0000 N   0  0
   -5.1065    0.0000    0.0000 C   0  0
   -2.7248   -1.2135    0.0000 N   0  0
   -1.2990   -0.7500    0.0000 C   0  0
    0.0000   -1.5000    0.0000 C   0  0
    0.0000   -3.0000    0.0000 O   0  0
    5.1969   -0.0351    0.0000 C   0  0
    5.1946    1.4649    0.0000 C   0  0
    5.1976    5.9643    0.0000 C   0  0
    3.9000    6.7168    0.0000 Cl  0  0
    6.4980    6.7119    0.0000 C   0  0
  1  2  1  0
  2  3  1  0
  3  4  2  0
  3  5  1  0
  5  6  2  0
  6  7  1  0
  7  8  2  0
  8  9  1  0
  9 10  1  0
 10 11  1  0
 11 12  1  0
 12 13  1  0
 13 14  1  0
 13 15  1  0
 15 16  1  0
 16 17  1  0
 17 18  2  0
 18 19  1  0
 19 20  2  0
 20 21  1  0
 21 22  2  0
 22 23  1  0
 23 24  2  0
 24 25  1  0
 25 26  1  0
 24 27  1  0
 27 28  2  0
 28 21  1  0
 20 29  1  0
 29 30  1  0
 29 31  1  0
 31 32  2  0
 32 19  1  0
 32 33  1  0
 33 16  1  0
 33 34  2  0
 13 35  1  0
 35 36  1  0
 36 10  1  0
  8 37  1  0
 37 38  1  0
 37 39  2  0
 39  5  1  0
M  END
> <assay_chembl_id>
CHEMBL4687443

> <assay_description>
Antiproliferative activity against human LNCaP cells assessed as reduction in cell viability incubated for 6 days by cell-titer glo assay

> <document_journal>
Eur J Med Chem

> <molecule_chembl_id>
CHEMBL4762640

> <standard_value>
29.6

> <IC50_uM>
0.0296

> <Activity>
Yes

> <RemovedSalts>
OC(=O)C(F)(F)F
OC(=O)C(F)(F)F

> <Canonical_Smiles>
COC(=O)c1ccc(CN2CCC(O)(Cn3cnc4c(-c5ccc(CN)cc5)n(C)nc4c3=O)CC2)c(Cl)c1.O=C(O)C(F)(F)F.O=C(O)C(F)(F)F

$$$$

  SciTegic03142313312D

 38 42  0  0  1  0            999 V2000
    3.8965    6.7153    0.0000 C   0  0
    5.1954    5.9651    0.0000 C   0  0  2  0  0  0
    5.1947    4.4643    0.0000 C   0  0
    3.8950    3.7137    0.0000 C   0  0
    2.5961    4.4639    0.0000 O   0  0
    3.8943    2.2128    0.0000 N   0  0
    2.5965    1.4608    0.0000 C   0  0
    2.5989   -0.0392    0.0000 C   0  0
    3.8990   -0.7455    0.0000 C   0  0
    5.1994   -1.4932    0.0000 O   0  0
    2.6003   -1.4977    0.0000 C   0  0
    1.2990   -0.7500    0.0000 N   0  0
    1.2990    0.7500    0.0000 C   0  0
    0.0000    1.5000    0.0000 N   0  0
   -1.2990    0.7500    0.0000 C   0  0
   -2.7248    1.2135    0.0000 C   0  0
   -3.1884    2.6408    0.0000 C   0  0
   -2.2738    3.8234    0.0000 C   0  0
   -2.8433    5.2111    0.0000 C   0  0
   -4.3298    5.4117    0.0000 C   0  0
   -4.9025    6.7990    0.0000 C   0  0
   -6.3893    6.9975    0.0000 N   0  0
   -5.2468    4.2247    0.0000 C   0  0
   -4.6773    2.8370    0.0000 C   0  0
   -3.6065    0.0000    0.0000 N   0  0
   -5.1065    0.0000    0.0000 C   0  0
   -2.7248   -1.2135    0.0000 N   0  0
   -1.2990   -0.7500    0.0000 C   0  0
    0.0000   -1.5000    0.0000 C   0  0
    0.0000   -3.0000    0.0000 O   0  0
    5.1969   -0.0351    0.0000 C   0  0
    5.1946    1.4649    0.0000 C   0  0
    6.4950    6.7157    0.0000 C   0  0
    7.7953    5.9678    0.0000 C   0  0
    9.0932    6.7197    0.0000 C   0  0
    9.0909    8.2197    0.0000 C   0  0
    7.7907    8.9678    0.0000 C   0  0
    6.4929    8.2158    0.0000 C   0  0
  2  1  1  1
  2  3  1  0
  3  4  1  0
  4  5  2  0
  4  6  1  0
  6  7  1  0
  7  8  1  0
  8  9  1  0
  9 10  1  0
  9 11  1  0
 11 12  1  0
 12 13  1  0
 13 14  2  0
 14 15  1  0
 15 16  2  0
 16 17  1  0
 17 18  2  0
 18 19  1  0
 19 20  2  0
 20 21  1  0
 21 22  1  0
 20 23  1  0
 23 24  2  0
 24 17  1  0
 16 25  1  0
 25 26  1  0
 25 27  1  0
 27 28  2  0
 28 15  1  0
 28 29  1  0
 29 12  1  0
 29 30  2  0
  9 31  1  0
 31 32  1  0
 32  6  1  0
  2 33  1  0
 33 34  2  0
 34 35  1  0
 35 36  2  0
 36 37  1  0
 37 38  2  0
 38 33  1  0
M  END
> <assay_chembl_id>
CHEMBL4687443

> <assay_description>
Antiproliferative activity against human LNCaP cells assessed as reduction in cell viability incubated for 6 days by cell-titer glo assay

> <document_journal>
Eur J Med Chem

> <molecule_chembl_id>
CHEMBL4750176

> <standard_value>
20.1

> <IC50_uM>
0.0201

> <Activity>
Yes

> <RemovedSalts>
OC(=O)C(F)(F)F

> <Canonical_Smiles>
C[C@H](CC(=O)N1CCC(O)(Cn2cnc3c(-c4ccc(CN)cc4)n(C)nc3c2=O)CC1)c1ccccc1.O=C(O)C(F)(F)F

$$$$

  SciTegic03142313312D

 19 20  0  0  0  0            999 V2000
    9.0983   -0.7368    0.0000 C   0  0
    7.8003   -1.4887    0.0000 N   0  0
    7.8029   -2.9887    0.0000 C   0  0
    6.4990   -0.7409    0.0000 C   0  0
    6.4964    0.7591    0.0000 S   0  0
    5.2003   -1.4932    0.0000 N   0  0
    3.8990   -0.7455    0.0000 N   0  0
    2.6003   -1.4977    0.0000 C   0  0
    1.2990   -0.7500    0.0000 C   0  0
    1.2990    0.7500    0.0000 N   0  0
    0.0000    1.5000    0.0000 C   0  0
   -1.2990    0.7500    0.0000 C   0  0
   -1.2990   -0.7500    0.0000 C   0  0
   -2.5981   -1.5000    0.0000 C   0  0
   -2.5981   -3.0000    0.0000 C   0  0
   -3.8971   -3.7500    0.0000 F   0  0
   -1.2990   -3.7500    0.0000 C   0  0
    0.0000   -3.0000    0.0000 C   0  0
    0.0000   -1.5000    0.0000 C   0  0
  1  2  1  0
  2  3  1  0
  2  4  1  0
  4  5  2  0
  4  6  1  0
  6  7  1  0
  7  8  2  3
  8  9  1  0
  9 10  2  0
 10 11  1  0
 11 12  2  0
 12 13  1  0
 13 14  2  0
 14 15  1  0
 15 16  1  0
 15 17  2  0
 17 18  1  0
 18 19  2  0
 19  9  1  0
 19 13  1  0
M  END
> <assay_chembl_id>
CHEMBL4699934

> <assay_description>
Cytotoxicity against human LNCaP cells assessed as reduction in cell viability in presence of Cu2+ incubated for 72 hrs by cell titer-glo luminescent cell viability assay

> <document_journal>
RSC Med Chem

> <molecule_chembl_id>
CHEMBL4764390

> <standard_value>
1

> <IC50_uM>
0.001

> <Activity>
Yes

> <Canonical_Smiles>
CN(C)C(=S)NN=Cc1nccc2cc(F)ccc12

$$$$

  SciTegic03142313312D

 53 58  0  0  0  0            999 V2000
   -4.1367  -25.2818    0.0000 C   0  0
   -5.0455  -26.4752    0.0000 C   0  0
   -4.5066  -27.8750    0.0000 C   0  0
   -6.0961  -27.5458    0.0000 C   0  0
   -5.8476  -29.0250    0.0000 O   0  0
   -7.4390  -26.8774    0.0000 N   0  0
   -8.7697  -27.5712    0.0000 C   0  0
   -8.9452  -29.0559    0.0000 C   0  0
  -10.3237  -29.6474    0.0000 C   0  0
  -11.5252  -28.7494    0.0000 C   0  0
  -12.9044  -29.3412    0.0000 C   0  0
  -14.2828  -29.9326    0.0000 N   0  0
  -11.3482  -27.2598    0.0000 C   0  0
  -12.5503  -26.3613    0.0000 C   0  0
  -13.9291  -26.9519    0.0000 F   0  0
  -12.3728  -24.8718    0.0000 F   0  0
  -13.7513  -25.4627    0.0000 F   0  0
   -9.9697  -26.6684    0.0000 C   0  0
   -7.2183  -25.3937    0.0000 C   0  0
   -8.2826  -24.3367    0.0000 S   0  0
   -5.7487  -25.1647    0.0000 N   0  0
   -5.0827  -23.8197    0.0000 C   0  0
   -5.9137  -22.5700    0.0000 C   0  0
   -5.2477  -21.2250    0.0000 C   0  0
   -6.0787  -19.9752    0.0000 C   0  0
   -5.4127  -18.6303    0.0000 C   0  0
   -6.2437  -17.3805    0.0000 C   0  0
   -5.5788  -16.0378    0.0000 N   0  0
   -6.2723  -14.7078    0.0000 C   0  0
   -5.2180  -13.6588    0.0000 C   0  0
   -5.4637  -12.1782    0.0000 C   0  0
   -4.3049  -11.2244    0.0000 O   0  0
   -4.5505   -9.7438    0.0000 C   0  0
   -3.3917   -8.7901    0.0000 C   0  0
   -3.6373   -7.3095    0.0000 O   0  0
   -2.4785   -6.3557    0.0000 C   0  0
   -2.7241   -4.8751    0.0000 C   0  0
   -1.5653   -3.9214    0.0000 O   0  0
   -1.8110   -2.4408    0.0000 C   0  0
   -3.2154   -1.9140    0.0000 O   0  0
   -0.6522   -1.4871    0.0000 C   0  0
   -0.8987    0.0000    0.0000 C   0  0  3  0  0  0
   -2.0541   -1.3755    0.0000 C   0  0
   -0.6052   -0.9721    0.0000 C   0  0  3  0  0  0
   -0.6052    0.5686    0.0000 C   0  0
    0.4035    1.7790    0.0000 C   0  0  3  0  0  0
    1.7790    1.2105    0.0000 C   0  0
    1.7607   -0.2751    0.0000 C   0  0  3  0  0  0
    0.7703   -1.5223    0.0000 C   0  0
    0.3852   -0.6052    0.0000 C   0  0
   -0.8987    1.3205    0.0000 C   0  0
   -3.8788  -14.3056    0.0000 N   0  0
   -4.0996  -15.7893    0.0000 N   0  0
  1  2  1  0
  2  3  1  0
  2  4  1  0
  4  5  2  0
  4  6  1  0
  6  7  1  0
  7  8  2  0
  8  9  1  0
  9 10  2  0
 10 11  1  0
 11 12  3  0
 10 13  1  0
 13 14  1  0
 14 15  1  0
 14 16  1  0
 14 17  1  0
 13 18  2  0
 18  7  1  0
  6 19  1  0
 19 20  2  0
 19 21  1  0
 21  2  1  0
 21 22  1  0
 22 23  1  0
 23 24  1  0
 24 25  1  0
 25 26  1  0
 26 27  1  0
 27 28  1  0
 28 29  1  0
 29 30  2  0
 30 31  1  0
 31 32  1  0
 32 33  1  0
 33 34  1  0
 34 35  1  0
 35 36  1  0
 36 37  1  0
 37 38  1  0
 38 39  1  0
 39 40  2  0
 39 41  1  0
 42 41  1  4
 42 43  1  0
 44 43  1  4
 44 45  1  0
 46 45  1  4
 46 47  1  0
 48 47  1  4
 48 49  1  0
 49 44  1  0
 48 50  1  0
 50 42  1  0
 46 51  1  0
 51 42  1  0
 30 52  1  0
 52 53  2  0
 53 28  1  0
M  END
> <assay_chembl_id>
CHEMBL4709119

> <assay_description>
Antiproliferative activity against androgen-positive human LNCaP cells assessed as cell growth inhibition measured after 72 hrs by SRB assay

> <document_journal>
Eur J Med Chem

> <molecule_chembl_id>
CHEMBL4787330

> <standard_value>
33890

> <IC50_uM>
33.89

> <Activity>
No

> <Canonical_Smiles>
CC1(C)C(=O)N(c2ccc(C#N)c(C(F)(F)F)c2)C(=S)N1CCCCCCn1cc(COCCOCCOC(=O)CC23CC4CC(CC(C4)C2)C3)nn1

$$$$

  SciTegic03142313312D

 31 33  0  0  1  0            999 V2000
    2.5951   -3.0031    0.0000 C   0  0
    2.5973   -1.5031    0.0000 O   0  0
    1.2990   -0.7500    0.0000 C   0  0
    1.2990    0.7500    0.0000 C   0  0
    0.0000    1.5000    0.0000 C   0  0
   -1.2990    0.7500    0.0000 C   0  0
   -2.5981    1.5000    0.0000 C   0  0
   -3.8971    0.7500    0.0000 C   0  0
   -5.1979    1.4986    0.0000 C   0  0  2  0  0  0
   -6.4957    0.7465    0.0000 C   0  0
   -5.2009    2.9995    0.0000 C   0  0
   -3.9031    3.7516    0.0000 O   0  0
   -6.5017    3.7481    0.0000 N   0  0
   -6.5046    5.2489    0.0000 N   0  0
   -7.8054    5.9976    0.0000 C   0  0
   -9.1032    5.2454    0.0000 S   0  0
   -7.8084    7.4984    0.0000 N   0  0
   -9.1092    8.2470    0.0000 C   0  0
   -9.1144    9.7471    0.0000 C   0  0
  -10.4159   10.4927    0.0000 C   0  0
  -11.7124    9.7383    0.0000 C   0  0
  -13.0147   10.4843    0.0000 C   0  0
  -13.0207   11.9842    0.0000 F   0  0
  -14.3110    9.7294    0.0000 F   0  0
  -14.3166   11.2292    0.0000 F   0  0
  -11.7073    8.2383    0.0000 C   0  0
  -10.4058    7.4927    0.0000 C   0  0
   -3.8971   -0.7500    0.0000 C   0  0
   -2.5981   -1.5000    0.0000 C   0  0
   -1.2990   -0.7500    0.0000 C   0  0
    0.0000   -1.5000    0.0000 C   0  0
  1  2  1  0
  2  3  1  0
  3  4  2  0
  4  5  1  0
  5  6  2  0
  6  7  1  0
  7  8  2  0
  8  9  1  0
  9 10  1  6
  9 11  1  0
 11 12  2  0
 11 13  1  0
 13 14  1  0
 14 15  1  0
 15 16  2  0
 15 17  1  0
 17 18  1  0
 18 19  2  0
 19 20  1  0
 20 21  2  0
 21 22  1  0
 22 23  1  0
 22 24  1  0
 22 25  1  0
 21 26  1  0
 26 27  2  0
 27 18  1  0
  8 28  1  0
 28 29  2  0
 29 30  1  0
 30  6  1  0
 30 31  2  0
 31  3  1  0
M  END
> <assay_chembl_id>
CHEMBL4711329

> <assay_description>
Cytotoxicity against human LNCaP cells assessed as reduction in cell viability by MTT assay

> <document_journal>
Eur J Med Chem

> <molecule_chembl_id>
CHEMBL4745543

> <standard_value>
92800

> <IC50_uM>
92.8

> <Activity>
No

> <Canonical_Smiles>
COc1ccc2cc([C@H](C)C(=O)NNC(=S)Nc3ccc(C(F)(F)F)cc3)ccc2c1

$$$$

  SciTegic03142313312D

 34 38  0  0  1  0            999 V2000
    2.5951   -3.0031    0.0000 C   0  0
    2.5973   -1.5031    0.0000 O   0  0
    1.2990   -0.7500    0.0000 C   0  0
    1.2990    0.7500    0.0000 C   0  0
    0.0000    1.5000    0.0000 C   0  0
   -1.2990    0.7500    0.0000 C   0  0
   -2.5981    1.5000    0.0000 C   0  0
   -3.8971    0.7500    0.0000 C   0  0
   -5.1979    1.4986    0.0000 C   0  0  2  0  0  0
   -6.4957    0.7465    0.0000 C   0  0
   -5.2009    2.9995    0.0000 C   0  0
   -3.9873    3.8592    0.0000 N   0  0
   -4.4507    5.2858    0.0000 N   0  0
   -5.9507    5.2859    0.0000 C   0  0
   -6.8288    6.4999    0.0000 S   0  0
   -6.2163    7.8701    0.0000 C   0  0
   -7.0959    9.0861    0.0000 C   0  0
   -6.4857   10.4565    0.0000 C   0  0
   -7.3673   11.6701    0.0000 C   0  0
   -8.8591   11.5134    0.0000 C   0  0
   -9.4693   10.1432    0.0000 C   0  0
   -8.5877    8.9295    0.0000 C   0  0
   -6.4143    3.8594    0.0000 N   0  0
   -7.8389    3.3872    0.0000 C   0  0
   -8.2555    1.9517    0.0000 C   0  0
   -9.7123    1.5943    0.0000 C   0  0
  -10.7502    2.6773    0.0000 C   0  0
  -12.2070    2.3199    0.0000 Cl  0  0
  -10.3312    4.1176    0.0000 C   0  0
   -8.8744    4.4749    0.0000 C   0  0
   -3.8971   -0.7500    0.0000 C   0  0
   -2.5981   -1.5000    0.0000 C   0  0
   -1.2990   -0.7500    0.0000 C   0  0
    0.0000   -1.5000    0.0000 C   0  0
  1  2  1  0
  2  3  1  0
  3  4  2  0
  4  5  1  0
  5  6  2  0
  6  7  1  0
  7  8  2  0
  8  9  1  0
  9 10  1  6
  9 11  1  0
 11 12  2  0
 12 13  1  0
 13 14  2  0
 14 15  1  0
 15 16  1  0
 16 17  1  0
 17 18  2  0
 18 19  1  0
 19 20  2  0
 20 21  1  0
 21 22  2  0
 22 17  1  0
 14 23  1  0
 23 11  1  0
 23 24  1  0
 24 25  2  0
 25 26  1  0
 26 27  2  0
 27 28  1  0
 27 29  1  0
 29 30  2  0
 30 24  1  0
  8 31  1  0
 31 32  2  0
 32 33  1  0
 33  6  1  0
 33 34  2  0
 34  3  1  0
M  END
> <assay_chembl_id>
CHEMBL4711329

> <assay_description>
Cytotoxicity against human LNCaP cells assessed as reduction in cell viability by MTT assay

> <document_journal>
Eur J Med Chem

> <molecule_chembl_id>
CHEMBL4791713

> <standard_value>
50400

> <IC50_uM>
50.4

> <Activity>
No

> <Canonical_Smiles>
COc1ccc2cc([C@H](C)c3nnc(SCc4ccccc4)n3-c3ccc(Cl)cc3)ccc2c1

$$$$

  SciTegic03142313312D

 35 39  0  0  1  0            999 V2000
    2.5951   -3.0031    0.0000 C   0  0
    2.5973   -1.5031    0.0000 O   0  0
    1.2990   -0.7500    0.0000 C   0  0
    1.2990    0.7500    0.0000 C   0  0
    0.0000    1.5000    0.0000 C   0  0
   -1.2990    0.7500    0.0000 C   0  0
   -2.5981    1.5000    0.0000 C   0  0
   -3.8971    0.7500    0.0000 C   0  0
   -5.1979    1.4986    0.0000 C   0  0  2  0  0  0
   -6.4957    0.7465    0.0000 C   0  0
   -5.2009    2.9995    0.0000 C   0  0
   -3.9873    3.8592    0.0000 N   0  0
   -4.4507    5.2858    0.0000 N   0  0
   -5.9507    5.2859    0.0000 C   0  0
   -6.8288    6.4999    0.0000 S   0  0
   -6.2163    7.8701    0.0000 C   0  0
   -7.0959    9.0861    0.0000 C   0  0
   -6.4857   10.4565    0.0000 C   0  0
   -7.3673   11.6701    0.0000 C   0  0
   -8.8591   11.5134    0.0000 C   0  0
   -9.7406   12.7270    0.0000 F   0  0
   -9.4693   10.1432    0.0000 C   0  0
   -8.5877    8.9295    0.0000 C   0  0
   -6.4143    3.8594    0.0000 N   0  0
   -7.8389    3.3872    0.0000 C   0  0
   -8.2555    1.9517    0.0000 C   0  0
   -9.7123    1.5943    0.0000 C   0  0
  -10.7502    2.6773    0.0000 C   0  0
  -12.2070    2.3199    0.0000 Cl  0  0
  -10.3312    4.1176    0.0000 C   0  0
   -8.8744    4.4749    0.0000 C   0  0
   -3.8971   -0.7500    0.0000 C   0  0
   -2.5981   -1.5000    0.0000 C   0  0
   -1.2990   -0.7500    0.0000 C   0  0
    0.0000   -1.5000    0.0000 C   0  0
  1  2  1  0
  2  3  1  0
  3  4  2  0
  4  5  1  0
  5  6  2  0
  6  7  1  0
  7  8  2  0
  8  9  1  0
  9 10  1  6
  9 11  1  0
 11 12  2  0
 12 13  1  0
 13 14  2  0
 14 15  1  0
 15 16  1  0
 16 17  1  0
 17 18  2  0
 18 19  1  0
 19 20  2  0
 20 21  1  0
 20 22  1  0
 22 23  2  0
 23 17  1  0
 14 24  1  0
 24 11  1  0
 24 25  1  0
 25 26  2  0
 26 27  1  0
 27 28  2  0
 28 29  1  0
 28 30  1  0
 30 31  2  0
 31 25  1  0
  8 32  1  0
 32 33  2  0
 33 34  1  0
 34  6  1  0
 34 35  2  0
 35  3  1  0
M  END
> <assay_chembl_id>
CHEMBL4711329

> <assay_description>
Cytotoxicity against human LNCaP cells assessed as reduction in cell viability by MTT assay

> <document_journal>
Eur J Med Chem

> <molecule_chembl_id>
CHEMBL4761950

> <standard_value>
33900

> <IC50_uM>
33.9

> <Activity>
No

> <Canonical_Smiles>
COc1ccc2cc([C@H](C)c3nnc(SCc4ccc(F)cc4)n3-c3ccc(Cl)cc3)ccc2c1

$$$$

  SciTegic03142313312D

 35 39  0  0  1  0            999 V2000
    2.5951   -3.0031    0.0000 C   0  0
    2.5973   -1.5031    0.0000 O   0  0
    1.2990   -0.7500    0.0000 C   0  0
    1.2990    0.7500    0.0000 C   0  0
    0.0000    1.5000    0.0000 C   0  0
   -1.2990    0.7500    0.0000 C   0  0
   -2.5981    1.5000    0.0000 C   0  0
   -3.8971    0.7500    0.0000 C   0  0
   -5.1979    1.4986    0.0000 C   0  0  2  0  0  0
   -6.4957    0.7465    0.0000 C   0  0
   -5.2009    2.9995    0.0000 C   0  0
   -3.9873    3.8592    0.0000 N   0  0
   -4.4507    5.2858    0.0000 N   0  0
   -5.9507    5.2859    0.0000 C   0  0
   -6.8288    6.4999    0.0000 S   0  0
   -6.2163    7.8701    0.0000 C   0  0
   -7.0959    9.0861    0.0000 C   0  0
   -6.4857   10.4565    0.0000 C   0  0
   -7.3673   11.6701    0.0000 C   0  0
   -8.8591   11.5134    0.0000 C   0  0
   -9.7406   12.7270    0.0000 C   0  0
   -9.4693   10.1432    0.0000 C   0  0
   -8.5877    8.9295    0.0000 C   0  0
   -6.4143    3.8594    0.0000 N   0  0
   -7.8389    3.3872    0.0000 C   0  0
   -8.2555    1.9517    0.0000 C   0  0
   -9.7123    1.5943    0.0000 C   0  0
  -10.7502    2.6773    0.0000 C   0  0
  -12.2070    2.3199    0.0000 Cl  0  0
  -10.3312    4.1176    0.0000 C   0  0
   -8.8744    4.4749    0.0000 C   0  0
   -3.8971   -0.7500    0.0000 C   0  0
   -2.5981   -1.5000    0.0000 C   0  0
   -1.2990   -0.7500    0.0000 C   0  0
    0.0000   -1.5000    0.0000 C   0  0
  1  2  1  0
  2  3  1  0
  3  4  2  0
  4  5  1  0
  5  6  2  0
  6  7  1  0
  7  8  2  0
  8  9  1  0
  9 10  1  6
  9 11  1  0
 11 12  2  0
 12 13  1  0
 13 14  2  0
 14 15  1  0
 15 16  1  0
 16 17  1  0
 17 18  2  0
 18 19  1  0
 19 20  2  0
 20 21  1  0
 20 22  1  0
 22 23  2  0
 23 17  1  0
 14 24  1  0
 24 11  1  0
 24 25  1  0
 25 26  2  0
 26 27  1  0
 27 28  2  0
 28 29  1  0
 28 30  1  0
 30 31  2  0
 31 25  1  0
  8 32  1  0
 32 33  2  0
 33 34  1  0
 34  6  1  0
 34 35  2  0
 35  3  1  0
M  END
> <assay_chembl_id>
CHEMBL4711329

> <assay_description>
Cytotoxicity against human LNCaP cells assessed as reduction in cell viability by MTT assay

> <document_journal>
Eur J Med Chem

> <molecule_chembl_id>
CHEMBL4778199

> <standard_value>
52200

> <IC50_uM>
52.2

> <Activity>
No

> <Canonical_Smiles>
COc1ccc2cc([C@H](C)c3nnc(SCc4ccc(C)cc4)n3-c3ccc(Cl)cc3)ccc2c1

$$$$

  SciTegic03142313312D

 36 40  0  0  1  0            999 V2000
   -3.4404  -12.5708    0.0000 C   0  0
   -1.9489  -12.7298    0.0000 O   0  0
   -1.0642  -11.5174    0.0000 C   0  0
    0.4276  -11.6743    0.0000 C   0  0
    1.3093  -10.4608    0.0000 C   0  0
    0.6993   -9.0904    0.0000 C   0  0
    1.5791   -7.8744    0.0000 C   0  0
    0.9667   -6.5042    0.0000 S   0  0
    1.8450   -5.2903    0.0000 C   0  0
    3.3450   -5.2904    0.0000 N   0  0
    3.8086   -3.8638    0.0000 N   0  0
    2.5951   -3.0039    0.0000 C   0  0
    2.5973   -1.5031    0.0000 C   0  0  1  0  0  0
    1.2990   -0.7517    0.0000 C   0  0
    3.8976   -0.7537    0.0000 C   0  0
    3.9019    0.7463    0.0000 C   0  0
    5.2031    1.4926    0.0000 C   0  0
    6.4999    0.7389    0.0000 C   0  0
    7.8011    1.4852    0.0000 C   0  0
    9.0980    0.7315    0.0000 C   0  0
   10.4014    1.4755    0.0000 O   0  0
   11.6973    0.7200    0.0000 C   0  0
    9.0937   -0.7685    0.0000 C   0  0
    7.7926   -1.5148    0.0000 C   0  0
    6.4957   -0.7611    0.0000 C   0  0
    5.1945   -1.5074    0.0000 C   0  0
    1.3815   -3.8637    0.0000 N   0  0
   -0.0430   -3.3914    0.0000 C   0  0
   -0.4594   -1.9558    0.0000 C   0  0
   -1.9161   -1.5982    0.0000 C   0  0
   -2.9541   -2.6810    0.0000 C   0  0
   -4.4109   -2.3235    0.0000 F   0  0
   -2.5354   -4.1214    0.0000 C   0  0
   -1.0786   -4.4790    0.0000 C   0  0
   -0.7925   -8.9336    0.0000 C   0  0
   -1.6742  -10.1471    0.0000 C   0  0
  1  2  1  0
  2  3  1  0
  3  4  2  0
  4  5  1  0
  5  6  2  0
  6  7  1  0
  7  8  1  0
  8  9  1  0
  9 10  2  0
 10 11  1  0
 11 12  2  0
 12 13  1  0
 13 14  1  1
 13 15  1  0
 15 16  2  0
 16 17  1  0
 17 18  2  0
 18 19  1  0
 19 20  2  0
 20 21  1  0
 21 22  1  0
 20 23  1  0
 23 24  2  0
 24 25  1  0
 25 18  1  0
 25 26  2  0
 26 15  1  0
 12 27  1  0
 27  9  1  0
 27 28  1  0
 28 29  2  0
 29 30  1  0
 30 31  2  0
 31 32  1  0
 31 33  1  0
 33 34  2  0
 34 28  1  0
  6 35  1  0
 35 36  2  0
 36  3  1  0
M  END
> <assay_chembl_id>
CHEMBL4711329

> <assay_description>
Cytotoxicity against human LNCaP cells assessed as reduction in cell viability by MTT assay

> <document_journal>
Eur J Med Chem

> <molecule_chembl_id>
CHEMBL4776724

> <standard_value>
22760

> <IC50_uM>
22.76

> <Activity>
No

> <Canonical_Smiles>
COc1ccc(CSc2nnc([C@@H](C)c3ccc4cc(OC)ccc4c3)n2-c2ccc(F)cc2)cc1

$$$$

  SciTegic03142313312D

 36 40  0  0  1  0            999 V2000
    2.5951   -3.0031    0.0000 C   0  0
    2.5973   -1.5031    0.0000 O   0  0
    1.2990   -0.7500    0.0000 C   0  0
    1.2990    0.7500    0.0000 C   0  0
    0.0000    1.5000    0.0000 C   0  0
   -1.2990    0.7500    0.0000 C   0  0
   -2.5981    1.5000    0.0000 C   0  0
   -3.8971    0.7500    0.0000 C   0  0
   -5.1979    1.4986    0.0000 C   0  0  2  0  0  0
   -6.4957    0.7465    0.0000 C   0  0
   -5.2009    2.9995    0.0000 C   0  0
   -3.9873    3.8592    0.0000 N   0  0
   -4.4507    5.2858    0.0000 N   0  0
   -5.9507    5.2859    0.0000 C   0  0
   -6.8288    6.4999    0.0000 S   0  0
   -6.2163    7.8701    0.0000 C   0  0
   -7.0959    9.0861    0.0000 C   0  0
   -6.4857   10.4565    0.0000 C   0  0
   -4.9939   10.6131    0.0000 Cl  0  0
   -7.3673   11.6701    0.0000 C   0  0
   -8.8591   11.5134    0.0000 C   0  0
   -9.4693   10.1432    0.0000 C   0  0
   -8.5877    8.9295    0.0000 C   0  0
   -9.1980    7.5593    0.0000 Cl  0  0
   -6.4143    3.8594    0.0000 N   0  0
   -7.8389    3.3872    0.0000 C   0  0
   -8.2555    1.9517    0.0000 C   0  0
   -9.7123    1.5943    0.0000 C   0  0
  -10.7502    2.6773    0.0000 C   0  0
  -10.3312    4.1176    0.0000 C   0  0
  -11.3691    5.2005    0.0000 Cl  0  0
   -8.8744    4.4749    0.0000 C   0  0
   -3.8971   -0.7500    0.0000 C   0  0
   -2.5981   -1.5000    0.0000 C   0  0
   -1.2990   -0.7500    0.0000 C   0  0
    0.0000   -1.5000    0.0000 C   0  0
  1  2  1  0
  2  3  1  0
  3  4  2  0
  4  5  1  0
  5  6  2  0
  6  7  1  0
  7  8  2  0
  8  9  1  0
  9 10  1  6
  9 11  1  0
 11 12  2  0
 12 13  1  0
 13 14  2  0
 14 15  1  0
 15 16  1  0
 16 17  1  0
 17 18  2  0
 18 19  1  0
 18 20  1  0
 20 21  2  0
 21 22  1  0
 22 23  2  0
 23 17  1  0
 23 24  1  0
 14 25  1  0
 25 11  1  0
 25 26  1  0
 26 27  2  0
 27 28  1  0
 28 29  2  0
 29 30  1  0
 30 31  1  0
 30 32  2  0
 32 26  1  0
  8 33  1  0
 33 34  2  0
 34 35  1  0
 35  6  1  0
 35 36  2  0
 36  3  1  0
M  END
> <assay_chembl_id>
CHEMBL4711329

> <assay_description>
Cytotoxicity against human LNCaP cells assessed as reduction in cell viability by MTT assay

> <document_journal>
Eur J Med Chem

> <molecule_chembl_id>
CHEMBL4789635

> <standard_value>
73700

> <IC50_uM>
73.7

> <Activity>
No

> <Canonical_Smiles>
COc1ccc2cc([C@H](C)c3nnc(SCc4c(Cl)cccc4Cl)n3-c3cccc(Cl)c3)ccc2c1

$$$$

  SciTegic03142313312D

 63 65  0  0  1  0            999 V2000
    3.3226   -0.5678    0.0000 C   0  0
    3.7653    0.8653    0.0000 C   0  0
    5.2285    1.1995    0.0000 C   0  0
    5.6699    2.6331    0.0000 C   0  0
    6.2502    0.1002    0.0000 C   0  0
    5.8088   -1.3334    0.0000 O   0  0
    7.7133    0.4344    0.0000 O   0  0
    8.7333   -0.6631    0.0000 C   0  0  1  0  0  0
    8.4477   -2.1356    0.0000 C   0  0
    7.0884   -2.7700    0.0000 C   0  0
    9.7602   -2.8626    0.0000 C   0  0
   10.8568   -1.8392    0.0000 C   0  0  2  0  0  0
   10.2220   -0.4797    0.0000 C   0  0  2  0  0  0
   10.9505    0.8296    0.0000 O   0  0
   10.1804    2.1177    0.0000 C   0  0
    8.6805    2.0944    0.0000 O   0  0
   10.9101    3.4292    0.0000 C   0  0
   10.1399    4.7174    0.0000 C   0  0
   10.8696    6.0289    0.0000 C   0  0
   10.0995    7.3171    0.0000 C   0  0
   10.8292    8.6286    0.0000 C   0  0
   10.0591    9.9167    0.0000 C   0  0
   10.7884   11.2275    0.0000 C   0  0
   12.3407   -2.0585    0.0000 C   0  0  1  0  0  0
   13.8327   -2.2127    0.0000 C   0  0
   11.6557   -0.7519    0.0000 O   0  0
   12.4180    0.5409    0.0000 C   0  0
   13.9179    0.5268    0.0000 C   0  0
   11.6807    1.8472    0.0000 O   0  0
   13.0944   -3.3553    0.0000 C   0  0
   12.5504   -4.7532    0.0000 C   0  0  2  0  0  0
   13.5780   -5.8498    0.0000 O   0  0
   15.0398   -5.5095    0.0000 C   0  0
   15.4753   -4.0741    0.0000 O   0  0
   16.0660   -6.6046    0.0000 C   0  0
   17.5277   -6.2644    0.0000 C   0  0
   18.5540   -7.3595    0.0000 C   0  0
   20.0157   -7.0193    0.0000 C   0  0
   21.0420   -8.1144    0.0000 C   0  0
   22.5037   -7.7741    0.0000 C   0  0
   23.5300   -8.8693    0.0000 C   0  0
   24.9917   -8.5290    0.0000 C   0  0
   26.0179   -9.6241    0.0000 C   0  0
   27.4797   -9.2839    0.0000 C   0  0
   28.5059  -10.3790    0.0000 C   0  0
   29.9677  -10.0388    0.0000 N   0  0
   30.9939  -11.1339    0.0000 C   0  0
   30.5584  -12.5693    0.0000 O   0  0
   32.4557  -10.7936    0.0000 C   0  0  1  0  0  0
   32.8912   -9.3582    0.0000 N   0  0
   33.4819  -11.8888    0.0000 C   0  0
   34.9436  -11.5485    0.0000 C   0  0
   35.9693  -12.6430    0.0000 C   0  0
   35.3791  -10.1131    0.0000 C   0  0
   11.1184   -5.1995    0.0000 C   0  0  1  0  0  0
   11.8365   -5.8954    0.0000 O   0  0
    9.8766   -4.3581    0.0000 C   0  0  1  0  0  0
    8.7034   -5.2884    0.0000 O   0  0
    9.2191   -6.6970    0.0000 C   0  0
    8.3827   -7.9421    0.0000 O   0  0
   10.7181   -6.6418    0.0000 C   0  0  2  0  0  0
   11.7054   -6.4829    0.0000 C   0  0
   10.1431   -8.0272    0.0000 O   0  0
  1  2  1  0
  2  3  2  0
  3  4  1  0
  3  5  1  0
  5  6  2  0
  5  7  1  0
  8  7  1  6
  8  9  1  0
  9 10  1  0
  9 11  2  0
 12 11  1  6
 12 13  1  0
 13  8  1  0
 13 14  1  1
 14 15  1  0
 15 16  2  0
 15 17  1  0
 17 18  1  0
 18 19  1  0
 19 20  1  0
 20 21  1  0
 21 22  1  0
 22 23  1  0
 12 24  1  0
 24 25  1  6
 24 26  1  0
 26 27  1  0
 27 28  1  0
 27 29  2  0
 24 30  1  0
 30 31  1  0
 31 32  1  6
 32 33  1  0
 33 34  2  0
 33 35  1  0
 35 36  1  0
 36 37  1  0
 37 38  1  0
 38 39  1  0
 39 40  1  0
 40 41  1  0
 41 42  1  0
 42 43  1  0
 43 44  1  0
 44 45  1  0
 45 46  1  0
 46 47  1  0
 47 48  2  0
 47 49  1  0
 49 50  1  1
 49 51  1  0
 51 52  1  0
 52 53  1  0
 52 54  1  0
 31 55  1  0
 55 56  1  1
 55 57  1  0
 57 11  1  0
 57 58  1  1
 58 59  1  0
 59 60  2  0
 59 61  1  0
 61 55  1  0
 61 62  1  1
 61 63  1  0
M  END
> <assay_chembl_id>
CHEMBL4712300

> <assay_description>
Cytotoxicity against human LNCAP cells incubated for 48 hrs clonogenic survival assay

> <document_journal>
J Med Chem

> <molecule_chembl_id>
CHEMBL278911

> <standard_value>
14

> <IC50_uM>
0.014

> <Activity>
Yes

> <Canonical_Smiles>
C/C=C(/C)C(=O)O[C@H]1C(C)=C2[C@H]([C@@H]1OC(=O)CCCCCCC)[C@@](C)(OC(C)=O)C[C@H](OC(=O)CCCCCCCCCCCNC(=O)[C@@H](N)CC(C)C)[C@@]1(O)[C@H]2OC(=O)[C@@]1(C)O

$$$$

  SciTegic03142313312D

 26 32  0  0  1  0            999 V2000
    5.3385    3.0022    0.0000 C   0  0
    4.3654    1.8606    0.0000 C   0  0
    4.8680    0.4473    0.0000 C   0  0
    2.9000    2.1200    0.0000 C   0  0  2  0  0  0
    3.1600    4.0800    0.0000 O   0  0
    1.5400    2.9300    0.0000 C   0  0  1  0  0  0
    0.2000    2.1200    0.0000 C   0  0  2  0  0  0
   -1.4400    2.1200    0.0000 O   0  0
    0.2000    0.5600    0.0000 C   0  0  1  0  0  0
   -1.1200   -0.1900    0.0000 C   0  0  1  0  0  0
   -1.1342    1.3099    0.0000 C   0  0
   -2.5000    0.5600    0.0000 C   0  0
   -3.8700   -0.1900    0.0000 C   0  0
   -3.8700   -1.8000    0.0000 C   0  0
   -2.5000   -2.5800    0.0000 C   0  0
   -2.7300   -3.8100    0.0000 C   0  0
   -4.1700   -3.9100    0.0000 O   0  0
   -4.8300   -2.6400    0.0000 C   0  0
   -6.3040   -2.3621    0.0000 O   0  0
   -1.1200   -1.8000    0.0000 C   0  0  2  0  0  0
    0.2000   -2.5800    0.0000 C   0  0
    1.5400   -1.8000    0.0000 C   0  0  2  0  0  0
    3.3900   -1.2200    0.0000 O   0  0
    1.5400   -0.1900    0.0000 C   0  0  2  0  0  0
    2.9000    0.5600    0.0000 C   0  0
    4.1916   -0.2027    0.0000 O   0  0
  1  2  1  0
  2  3  1  0
  4  2  1  1
  4  5  1  0
  6  5  1  6
  6  4  1  0
  6  7  1  0
  7  8  1  1
  9  8  1  1
  9  7  1  0
  9 10  1  0
 10 11  1  1
 10 12  1  0
 12 13  1  0
 13 14  1  0
 14 15  2  0
 15 16  1  0
 16 17  1  0
 17 18  1  0
 18 14  1  0
 18 19  2  0
 15 20  1  0
 20 10  1  0
 20 21  1  1
 22 21  1  1
 22 23  1  0
 24 23  1  1
 24 22  1  0
 24  9  1  0
 24 25  1  0
 25  4  1  0
 25 26  2  0
M  END
> <assay_chembl_id>
CHEMBL4712353

> <assay_description>
Antiproliferative activity against human LNCaP cells incubated for 72 hrs by CCK8 assay

> <document_journal>
J Med Chem

> <molecule_chembl_id>
CHEMBL205190

> <standard_value>
10

> <IC50_uM>
0.01

> <Activity>
Yes

> <Canonical_Smiles>
CC(C)[C@]12O[C@H]1[C@@H]1O[C@@]13[C@@]1(C)CCC4=C(COC4=O)[C@@H]1C[C@@H]1O[C@@]13C2=O

$$$$

  SciTegic03142313312D

 32 33  0  0  0  0            999 V2000
    5.1937   -3.0093    0.0000 C   0  0
    3.8933   -3.7570    0.0000 C   0  0  3  0  0  0
    3.8962   -2.2570    0.0000 O   0  0
    2.5951   -3.0039    0.0000 C   0  0
    2.5973   -1.5031    0.0000 S   0  0  3  0  0  0
    3.8976   -0.7553    0.0000 O   0  0
    1.2990   -0.7500    0.0000 C   0  0
    1.2990    0.7500    0.0000 C   0  0
    0.0000    1.5000    0.0000 C   0  0
   -1.2990    0.7500    0.0000 C   0  0
   -2.5988    1.5004    0.0000 C   0  0
   -2.5998    3.0004    0.0000 F   0  0
   -3.8976    0.7500    0.0000 F   0  0
   -3.8982    2.2498    0.0000 F   0  0
   -1.2990   -0.7500    0.0000 C   0  0
    0.0000   -1.5000    0.0000 C   0  0
    3.8912   -5.2578    0.0000 C   0  0
    2.5909   -6.0056    0.0000 O   0  0
    5.1894   -6.0109    0.0000 N   0  0
    5.1873   -7.5117    0.0000 C   0  0
    3.8856   -8.2573    0.0000 C   0  0
    3.8804   -9.7573    0.0000 C   0  0
    5.1769  -10.5118    0.0000 C   0  0
    5.1748  -12.0126    0.0000 N   0  3
    6.4723  -12.7653    0.0000 O   0  0
    3.8745  -12.7604    0.0000 O   0  5
    6.4785   -9.7663    0.0000 C   0  0
    6.4837   -8.2663    0.0000 C   0  0
    7.7860   -7.5204    0.0000 C   0  0
    9.0829   -8.2741    0.0000 F   0  0
    7.7908   -6.0204    0.0000 F   0  0
    9.0873   -6.7743    0.0000 F   0  0
  2  1  1  4
  2  3  1  0
  2  4  1  0
  5  4  1  4
  5  6  2  0
  5  7  1  0
  7  8  2  0
  8  9  1  0
  9 10  2  0
 10 11  1  0
 11 12  1  0
 11 13  1  0
 11 14  1  0
 10 15  1  0
 15 16  2  0
 16  7  1  0
  2 17  1  0
 17 18  2  0
 17 19  1  0
 19 20  1  0
 20 21  2  0
 21 22  1  0
 22 23  2  0
 23 24  1  0
 24 25  2  0
 24 26  1  0
 23 27  1  0
 27 28  2  0
 28 20  1  0
 28 29  1  0
 29 30  1  0
 29 31  1  0
 29 32  1  0
M  CHG  2  24   1  26  -1
M  END
> <assay_chembl_id>
CHEMBL4713832

> <assay_description>
Antiproliferative activity against human LNCaP cells assessed as reduction in cell viability

> <document_journal>
Bioorg Med Chem Lett

> <molecule_chembl_id>
CHEMBL4779433

> <standard_value>
25550

> <IC50_uM>
25.55

> <Activity>
No

> <Canonical_Smiles>
CC(O)(C[S+]([O-])c1ccc(C(F)(F)F)cc1)C(=O)Nc1ccc([N+](=O)[O-])cc1C(F)(F)F

$$$$

  SciTegic03142313312D

 30 31  0  0  0  0            999 V2000
    5.2029   -2.9932    0.0000 C   0  0
    5.2003   -1.4932    0.0000 C   0  0  3  0  0  0
    3.9027   -2.2457    0.0000 O   0  0
    3.8990   -0.7455    0.0000 C   0  0
    2.6003   -1.4977    0.0000 S   0  0  3  0  0  0
    2.6030   -2.9977    0.0000 O   0  0
    1.2990   -0.7500    0.0000 C   0  0
    1.2990    0.7500    0.0000 C   0  0
    0.0000    1.5000    0.0000 C   0  0
   -1.2990    0.7500    0.0000 C   0  0
   -2.5981    1.5000    0.0000 F   0  0
   -1.2990   -0.7500    0.0000 C   0  0
    0.0000   -1.5000    0.0000 C   0  0
    0.0000   -3.0000    0.0000 F   0  0
    6.4990   -0.7409    0.0000 C   0  0
    6.4964    0.7591    0.0000 O   0  0
    7.8003   -1.4887    0.0000 N   0  0
    9.0990   -0.7364    0.0000 C   0  0
    9.0939    0.7637    0.0000 C   0  0
   10.3903    1.5181    0.0000 C   0  0
   11.6919    0.7726    0.0000 C   0  0
   12.9906    1.5249    0.0000 N   0  3
   14.2912    0.7775    0.0000 O   0  0
   12.9881    3.0249    0.0000 O   0  5
   11.6971   -0.7274    0.0000 C   0  0
   10.4007   -1.4818    0.0000 C   0  0
   10.4059   -2.9827    0.0000 C   0  0
   11.7071   -3.7289    0.0000 F   0  0
    9.1093   -3.7368    0.0000 F   0  0
   10.4104   -4.4827    0.0000 F   0  0
  2  1  1  4
  2  3  1  0
  2  4  1  0
  5  4  1  4
  5  6  2  0
  5  7  1  0
  7  8  2  0
  8  9  1  0
  9 10  2  0
 10 11  1  0
 10 12  1  0
 12 13  2  0
 13  7  1  0
 13 14  1  0
  2 15  1  0
 15 16  2  0
 15 17  1  0
 17 18  1  0
 18 19  2  0
 19 20  1  0
 20 21  2  0
 21 22  1  0
 22 23  2  0
 22 24  1  0
 21 25  1  0
 25 26  2  0
 26 18  1  0
 26 27  1  0
 27 28  1  0
 27 29  1  0
 27 30  1  0
M  CHG  2  22   1  24  -1
M  END
> <assay_chembl_id>
CHEMBL4713832

> <assay_description>
Antiproliferative activity against human LNCaP cells assessed as reduction in cell viability

> <document_journal>
Bioorg Med Chem Lett

> <molecule_chembl_id>
CHEMBL4760488

> <standard_value>
24402

> <IC50_uM>
24.402

> <Activity>
No

> <Canonical_Smiles>
CC(O)(C[S+]([O-])c1ccc(F)cc1F)C(=O)Nc1ccc([N+](=O)[O-])cc1C(F)(F)F

$$$$

  SciTegic03142313312D

 32 33  0  0  0  0            999 V2000
    5.1937   -3.0093    0.0000 C   0  0
    3.8933   -3.7570    0.0000 C   0  0  3  0  0  0
    3.8962   -2.2570    0.0000 O   0  0
    2.5951   -3.0039    0.0000 C   0  0
    2.5973   -1.5031    0.0000 S   0  0  3  0  0  0
    3.8976   -0.7553    0.0000 O   0  0
    1.2990   -0.7500    0.0000 C   0  0
    1.2990    0.7500    0.0000 C   0  0
    0.0000    1.5000    0.0000 C   0  0
   -1.2990    0.7500    0.0000 C   0  0
   -2.6003    1.4977    0.0000 O   0  0
   -3.8990    0.7455    0.0000 C   0  0
   -5.1996    1.4928    0.0000 F   0  0
   -3.8964   -0.7545    0.0000 F   0  0
   -5.1966   -0.0070    0.0000 F   0  0
   -1.2990   -0.7500    0.0000 C   0  0
    0.0000   -1.5000    0.0000 C   0  0
    3.8912   -5.2578    0.0000 C   0  0
    2.5909   -6.0056    0.0000 O   0  0
    5.1894   -6.0109    0.0000 N   0  0
    5.1873   -7.5117    0.0000 C   0  0
    6.4837   -8.2663    0.0000 C   0  0
    6.4785   -9.7663    0.0000 C   0  0
    5.1769  -10.5118    0.0000 C   0  0
    5.1717  -12.0126    0.0000 C   0  0
    5.1665  -13.5126    0.0000 N   0  0
    3.8804   -9.7573    0.0000 C   0  0
    2.5781  -10.5032    0.0000 C   0  0
    2.5720  -12.0032    0.0000 F   0  0
    1.2819   -9.7483    0.0000 F   0  0
    1.2761  -11.2481    0.0000 F   0  0
    3.8856   -8.2573    0.0000 C   0  0
  2  1  1  4
  2  3  1  0
  2  4  1  0
  5  4  1  4
  5  6  2  0
  5  7  1  0
  7  8  2  0
  8  9  1  0
  9 10  2  0
 10 11  1  0
 11 12  1  0
 12 13  1  0
 12 14  1  0
 12 15  1  0
 10 16  1  0
 16 17  2  0
 17  7  1  0
  2 18  1  0
 18 19  2  0
 18 20  1  0
 20 21  1  0
 21 22  2  0
 22 23  1  0
 23 24  2  0
 24 25  1  0
 25 26  3  0
 24 27  1  0
 27 28  1  0
 28 29  1  0
 28 30  1  0
 28 31  1  0
 27 32  2  0
 32 21  1  0
M  END
> <assay_chembl_id>
CHEMBL4713832

> <assay_description>
Antiproliferative activity against human LNCaP cells assessed as reduction in cell viability

> <document_journal>
Bioorg Med Chem Lett

> <molecule_chembl_id>
CHEMBL4783997

> <standard_value>
36240

> <IC50_uM>
36.24

> <Activity>
No

> <Canonical_Smiles>
CC(O)(C[S+]([O-])c1ccc(OC(F)(F)F)cc1)C(=O)Nc1ccc(C#N)c(C(F)(F)F)c1

$$$$

  SciTegic03142313312D

 31 32  0  0  0  0            999 V2000
    5.1937   -3.0093    0.0000 C   0  0
    3.8933   -3.7570    0.0000 C   0  0  3  0  0  0
    3.8962   -2.2570    0.0000 O   0  0
    2.5951   -3.0039    0.0000 C   0  0
    2.5973   -1.5031    0.0000 S   0  0  3  0  0  0
    3.8976   -0.7553    0.0000 O   0  0
    1.2990   -0.7500    0.0000 C   0  0
    1.2990    0.7500    0.0000 C   0  0
    0.0000    1.5000    0.0000 C   0  0
   -1.2990    0.7500    0.0000 C   0  0
   -2.5988    1.5004    0.0000 C   0  0
   -2.5998    3.0004    0.0000 F   0  0
   -3.8976    0.7500    0.0000 F   0  0
   -3.8982    2.2498    0.0000 F   0  0
   -1.2990   -0.7500    0.0000 C   0  0
    0.0000   -1.5000    0.0000 N   0  0
    3.8912   -5.2578    0.0000 C   0  0
    2.5909   -6.0056    0.0000 O   0  0
    5.1894   -6.0109    0.0000 N   0  0
    5.1873   -7.5117    0.0000 C   0  0
    6.4837   -8.2663    0.0000 C   0  0
    6.4785   -9.7663    0.0000 C   0  0
    5.1769  -10.5118    0.0000 C   0  0
    5.1717  -12.0126    0.0000 C   0  0
    5.1665  -13.5126    0.0000 N   0  0
    3.8804   -9.7573    0.0000 C   0  0
    2.5781  -10.5032    0.0000 C   0  0
    2.5720  -12.0032    0.0000 F   0  0
    1.2819   -9.7483    0.0000 F   0  0
    1.2761  -11.2481    0.0000 F   0  0
    3.8856   -8.2573    0.0000 C   0  0
  2  1  1  4
  2  3  1  0
  2  4  1  0
  5  4  1  4
  5  6  2  0
  5  7  1  0
  7  8  2  0
  8  9  1  0
  9 10  2  0
 10 11  1  0
 11 12  1  0
 11 13  1  0
 11 14  1  0
 10 15  1  0
 15 16  2  0
 16  7  1  0
  2 17  1  0
 17 18  2  0
 17 19  1  0
 19 20  1  0
 20 21  2  0
 21 22  1  0
 22 23  2  0
 23 24  1  0
 24 25  3  0
 23 26  1  0
 26 27  1  0
 27 28  1  0
 27 29  1  0
 27 30  1  0
 26 31  2  0
 31 20  1  0
M  END
> <assay_chembl_id>
CHEMBL4713832

> <assay_description>
Antiproliferative activity against human LNCaP cells assessed as reduction in cell viability

> <document_journal>
Bioorg Med Chem Lett

> <molecule_chembl_id>
CHEMBL4756981

> <standard_value>
95430

> <IC50_uM>
95.43

> <Activity>
No

> <Canonical_Smiles>
CC(O)(C[S+]([O-])c1ccc(C(F)(F)F)cn1)C(=O)Nc1ccc(C#N)c(C(F)(F)F)c1

$$$$

  SciTegic03142313312D

 33 38  0  0  0  0            999 V2000
   -0.6923   -4.0811    0.0000 C   0  0
    0.3114   -2.9665    0.0000 C   0  0
    1.8032   -3.1233    0.0000 N   0  0
    2.4133   -1.7530    0.0000 O   0  0
    1.2990   -0.7500    0.0000 C   0  0
    1.2990    0.7500    0.0000 C   0  0
    2.5981    1.5000    0.0000 Br  0  0
    0.0000    1.5000    0.0000 C   0  0
   -1.2990    0.7500    0.0000 C   0  0
   -2.5987    1.5004    0.0000 C   0  0
   -3.9492    0.8772    0.0000 N   0  0
   -4.9539    1.9899    0.0000 C   0  0
   -6.4539    1.9875    0.0000 C   0  0
   -7.2060    3.2854    0.0000 C   0  0
   -6.4580    4.5856    0.0000 C   0  0
   -7.2104    5.8841    0.0000 N   0  0
   -8.7105    5.8842    0.0000 C   0  0
   -9.4605    7.1832    0.0000 C   0  0
   -8.7105    8.4823    0.0000 O   0  0
   -7.2105    8.4823    0.0000 C   0  0
   -6.4605    7.1832    0.0000 C   0  0
   -4.9580    4.5880    0.0000 C   0  0
   -4.2060    3.2901    0.0000 C   0  0
   -2.7390    2.9810    0.0000 N   0  0
   -1.6177    3.9746    0.0000 C   0  0
   -0.1937    3.5003    0.0000 C   0  0
    0.9304    4.4935    0.0000 C   0  0
    2.3526    4.0166    0.0000 C   0  0
    2.6507    2.5465    0.0000 C   0  0
    1.5266    1.5533    0.0000 C   0  0
    0.1044    2.0302    0.0000 C   0  0
   -1.2990   -0.7500    0.0000 C   0  0
    0.0000   -1.5000    0.0000 C   0  0
  1  2  1  0
  2  3  2  0
  3  4  1  0
  4  5  1  0
  5  6  2  0
  6  7  1  0
  6  8  1  0
  8  9  2  0
  9 10  1  0
 10 11  2  0
 11 12  1  0
 12 13  2  0
 13 14  1  0
 14 15  2  0
 15 16  1  0
 16 17  1  0
 17 18  1  0
 18 19  1  0
 19 20  1  0
 20 21  1  0
 21 16  1  0
 15 22  1  0
 22 23  2  0
 23 12  1  0
 23 24  1  0
 24 10  1  0
 24 25  1  0
 25 26  1  0
 26 27  1  0
 27 28  1  0
 28 29  1  0
 29 30  1  0
 30 31  1  0
 31 26  1  0
  9 32  1  0
 32 33  2  0
 33  2  1  0
 33  5  1  0
M  END
> <assay_chembl_id>
CHEMBL4767061

> <assay_description>
Antiproliferative activity against AR-positive human LNCAP cells assessed as reduction in cell viability incubated for 96 hrs by cell-titer glo assay

> <document_journal>
J Med Chem

> <molecule_chembl_id>
CHEMBL4782221

> <standard_value>
570

> <IC50_uM>
0.57

> <Activity>
Yes

> <Canonical_Smiles>
Cc1noc2c(Br)cc(-c3nc4ccc(N5CCOCC5)cc4n3CC3CCCCC3)cc12

$$$$

  SciTegic03142313312D

 33 38  0  0  1  0            999 V2000
   -0.6923   -4.0811    0.0000 C   0  0
    0.3114   -2.9665    0.0000 C   0  0
    1.8032   -3.1233    0.0000 N   0  0
    2.4133   -1.7530    0.0000 O   0  0
    1.2990   -0.7500    0.0000 C   0  0
    1.2990    0.7500    0.0000 C   0  0
    0.0000    1.5000    0.0000 C   0  0
   -1.2990    0.7500    0.0000 C   0  0
   -2.5987    1.5004    0.0000 C   0  0
   -3.9492    0.8772    0.0000 N   0  0
   -4.9539    1.9899    0.0000 C   0  0
   -6.4539    1.9875    0.0000 C   0  0
   -7.2060    3.2854    0.0000 C   0  0
   -6.4580    4.5856    0.0000 C   0  0
   -7.2104    5.8841    0.0000 N   0  0
   -6.4605    7.1832    0.0000 C   0  0
   -7.2105    8.4823    0.0000 C   0  0
   -8.7105    8.4823    0.0000 O   0  0
   -9.4605    7.1832    0.0000 C   0  0
   -8.7105    5.8842    0.0000 C   0  0  2  0  0  0
   -9.4605    4.5852    0.0000 C   0  0
   -4.9580    4.5880    0.0000 C   0  0
   -4.2060    3.2901    0.0000 C   0  0
   -2.7390    2.9810    0.0000 N   0  0
   -1.6177    3.9746    0.0000 C   0  0
   -0.1937    3.5003    0.0000 C   0  0
    0.9304    4.4935    0.0000 C   0  0
    2.3526    4.0166    0.0000 C   0  0
    2.6507    2.5465    0.0000 C   0  0
    1.5266    1.5533    0.0000 C   0  0
    0.1044    2.0302    0.0000 C   0  0
   -1.2990   -0.7500    0.0000 C   0  0
    0.0000   -1.5000    0.0000 C   0  0
  1  2  1  0
  2  3  2  0
  3  4  1  0
  4  5  1  0
  5  6  2  0
  6  7  1  0
  7  8  2  0
  8  9  1  0
  9 10  2  0
 10 11  1  0
 11 12  2  0
 12 13  1  0
 13 14  2  0
 14 15  1  0
 15 16  1  0
 16 17  1  0
 17 18  1  0
 18 19  1  0
 19 20  1  0
 20 15  1  0
 20 21  1  1
 14 22  1  0
 22 23  2  0
 23 11  1  0
 23 24  1  0
 24  9  1  0
 24 25  1  0
 25 26  1  0
 26 27  1  0
 27 28  1  0
 28 29  1  0
 29 30  1  0
 30 31  1  0
 31 26  1  0
  8 32  1  0
 32 33  2  0
 33  2  1  0
 33  5  1  0
M  END
> <assay_chembl_id>
CHEMBL4767061

> <assay_description>
Antiproliferative activity against AR-positive human LNCAP cells assessed as reduction in cell viability incubated for 96 hrs by cell-titer glo assay

> <document_journal>
J Med Chem

> <molecule_chembl_id>
CHEMBL4791634

> <standard_value>
470

> <IC50_uM>
0.47

> <Activity>
Yes

> <Canonical_Smiles>
Cc1noc2ccc(-c3nc4ccc(N5CCOC[C@@H]5C)cc4n3CC3CCCCC3)cc12

$$$$

  SciTegic03142313312D

 46 51  0  0  0  0            999 V2000
    7.7936   -3.0154    0.0000 C   0  0
    7.7972   -1.5154    0.0000 N   0  0
    6.4990   -0.7623    0.0000 C   0  0
    5.1972   -1.5092    0.0000 C   0  0
    3.8990   -0.7562    0.0000 C   0  0
    2.5973   -1.5031    0.0000 N   0  0
    1.2990   -0.7500    0.0000 C   0  0
    1.2990    0.7500    0.0000 C   0  0
    2.5981    1.5000    0.0000 C   0  0
    2.5981    3.0000    0.0000 C   0  0
    1.2990    3.7500    0.0000 C   0  0
    0.0000    3.0000    0.0000 C   0  0
    0.0000    1.5000    0.0000 C   0  0
   -1.2990    0.7500    0.0000 N   0  0
   -1.2990   -0.7500    0.0000 C   0  0
   -2.5981   -1.5000    0.0000 C   0  0
   -2.5981   -3.0000    0.0000 C   0  0
   -1.2990   -3.7500    0.0000 C   0  0
    0.0000   -3.0000    0.0000 C   0  0
    1.2982   -3.7531    0.0000 N   0  3
    1.2961   -5.2531    0.0000 O   0  0
    2.5986   -3.0053    0.0000 O   0  5
    0.0000   -1.5000    0.0000 C   0  0
    9.0990   -0.7685    0.0000 C   0  0
   10.3972   -1.5216    0.0000 C   0  0
   11.6989   -0.7747    0.0000 C   0  0
   12.9971   -1.5277    0.0000 N   0  0
   14.2989   -0.7808    0.0000 C   0  0
   14.3000    0.7193    0.0000 C   0  0
   15.5995    1.4684    0.0000 C   0  0
   16.8980    0.7175    0.0000 C   0  0
   18.1967    1.4698    0.0000 N   0  3
   18.1956    2.9698    0.0000 O   0  0
   19.4966    0.7212    0.0000 O   0  5
   16.8971   -0.7825    0.0000 C   0  0
   18.1956   -1.5333    0.0000 N   0  0
   18.1946   -3.0333    0.0000 C   0  0
   19.4932   -3.7842    0.0000 C   0  0
   19.4922   -5.2842    0.0000 C   0  0
   18.1926   -6.0333    0.0000 C   0  0
   18.1917   -7.5333    0.0000 O   0  0
   16.8941   -5.2825    0.0000 C   0  0
   16.8951   -3.7825    0.0000 C   0  0
   15.5965   -3.0316    0.0000 C   0  0
   14.2970   -3.7808    0.0000 O   0  0
   15.5975   -1.5316    0.0000 C   0  0
  1  2  1  0
  2  3  1  0
  3  4  1  0
  4  5  1  0
  5  6  1  0
  6  7  1  0
  7  8  2  0
  8  9  1  0
  9 10  2  0
 10 11  1  0
 11 12  2  0
 12 13  1  0
 13  8  1  0
 13 14  2  0
 14 15  1  0
 15 16  2  0
 16 17  1  0
 17 18  2  0
 18 19  1  0
 19 20  1  0
 20 21  2  0
 20 22  1  0
 19 23  2  0
 23  7  1  0
 23 15  1  0
  2 24  1  0
 24 25  1  0
 25 26  1  0
 26 27  1  0
 27 28  1  0
 28 29  2  0
 29 30  1  0
 30 31  2  0
 31 32  1  0
 32 33  2  0
 32 34  1  0
 31 35  1  0
 35 36  1  0
 36 37  1  0
 37 38  2  0
 38 39  1  0
 39 40  2  0
 40 41  1  0
 40 42  1  0
 42 43  2  0
 43 37  1  0
 43 44  1  0
 44 45  2  0
 44 46  1  0
 46 28  1  0
 46 35  2  0
M  CHG  4  20   1  22  -1  32   1  34  -1
M  END
> <assay_chembl_id>
CHEMBL4773128

> <assay_description>
Cytotoxicity against human LNCaP cells assessed as reduction in cell viability measured after 72 hrs by SRB assay

> <document_journal>
Eur J Med Chem

> <molecule_chembl_id>
CHEMBL4791381

> <standard_value>
53

> <IC50_uM>
0.053

> <Activity>
Yes

> <Canonical_Smiles>
CN(CCCNc1c2ccccc2nc2cccc([N+](=O)[O-])c12)CCCNc1ccc([N+](=O)[O-])c2[nH]c3ccc(O)cc3c(=O)c12

$$$$

  SciTegic03142313312D

 50 56  0  0  0  0            999 V2000
   -0.0184   -6.0532    0.0000 O   0  0
   -1.3205   -5.3085    0.0000 C   0  0
   -2.6164   -6.0638    0.0000 C   0  0
   -2.6103   -7.5638    0.0000 C   0  0
   -3.9063   -8.3191    0.0000 C   0  0
   -3.9002   -9.8191    0.0000 O   0  0
   -5.2084   -7.5744    0.0000 C   0  0
   -5.2145   -6.0744    0.0000 C   0  0
   -3.9185   -5.3191    0.0000 C   0  0
   -3.9246   -3.8191    0.0000 N   0  0
   -2.6287   -3.0639    0.0000 C   0  0
   -2.6348   -1.5639    0.0000 C   0  0
   -3.9360   -0.8161    0.0000 N   0  3
   -3.9400    0.6839    0.0000 O   0  0
   -5.2333   -1.5691    0.0000 O   0  5
   -1.3388   -0.8086    0.0000 C   0  0
   -0.0367   -1.5533    0.0000 C   0  0
   -0.0306   -3.0533    0.0000 C   0  0
    1.2737   -3.7957    0.0000 N   0  0
    2.5693   -3.0382    0.0000 C   0  0
    3.8737   -3.7806    0.0000 C   0  0
    5.1693   -3.0230    0.0000 C   0  0
    6.4736   -3.7655    0.0000 N   0  0
    7.7696   -3.0102    0.0000 C   0  0
    9.0717   -3.7549    0.0000 C   0  0
    9.0779   -5.2549    0.0000 N   0  0
   10.3792   -6.0026    0.0000 C   0  0
   10.3832   -7.5034    0.0000 C   0  0
   11.6845   -8.2512    0.0000 C   0  0
   11.6885   -9.7520    0.0000 N   0  0
   12.9898  -10.4998    0.0000 C   0  0
   14.2889   -9.7498    0.0000 C   0  0
   14.2889   -8.2498    0.0000 C   0  0
   15.5879   -7.4998    0.0000 C   0  0
   16.8869   -8.2498    0.0000 C   0  0
   16.8869   -9.7498    0.0000 C   0  0
   15.5879  -10.4998    0.0000 C   0  0
   15.5879  -11.9998    0.0000 N   0  0
   14.2889  -12.7498    0.0000 C   0  0
   14.2889  -14.2498    0.0000 C   0  0
   12.9899  -14.9998    0.0000 C   0  0
   11.6908  -14.2499    0.0000 C   0  0
   11.6908  -12.7499    0.0000 C   0  0
   10.3895  -12.0021    0.0000 N   0  3
    9.0915  -12.7540    0.0000 O   0  0
   10.3869  -10.5021    0.0000 O   0  5
   12.9898  -11.9998    0.0000 C   0  0
    7.7819   -6.0102    0.0000 C   0  0
    6.4798   -5.2655    0.0000 C   0  0
   -1.3266   -3.8086    0.0000 C   0  0
  1  2  2  0
  2  3  1  0
  3  4  2  0
  4  5  1  0
  5  6  1  0
  5  7  2  0
  7  8  1  0
  8  9  2  0
  9  3  1  0
  9 10  1  0
 10 11  1  0
 11 12  2  0
 12 13  1  0
 13 14  2  0
 13 15  1  0
 12 16  1  0
 16 17  2  0
 17 18  1  0
 18 19  1  0
 19 20  1  0
 20 21  1  0
 21 22  1  0
 22 23  1  0
 23 24  1  0
 24 25  1  0
 25 26  1  0
 26 27  1  0
 27 28  1  0
 28 29  1  0
 29 30  1  0
 30 31  1  0
 31 32  2  0
 32 33  1  0
 33 34  2  0
 34 35  1  0
 35 36  2  0
 36 37  1  0
 37 32  1  0
 37 38  2  0
 38 39  1  0
 39 40  2  0
 40 41  1  0
 41 42  2  0
 42 43  1  0
 43 44  1  0
 44 45  2  0
 44 46  1  0
 43 47  2  0
 47 31  1  0
 47 39  1  0
 26 48  1  0
 48 49  1  0
 49 23  1  0
 18 50  2  0
 50  2  1  0
 50 11  1  0
M  CHG  4  13   1  15  -1  44   1  46  -1
M  END
> <assay_chembl_id>
CHEMBL4773128

> <assay_description>
Cytotoxicity against human LNCaP cells assessed as reduction in cell viability measured after 72 hrs by SRB assay

> <document_journal>
Eur J Med Chem

> <molecule_chembl_id>
CHEMBL4781429

> <standard_value>
117

> <IC50_uM>
0.117

> <Activity>
Yes

> <Canonical_Smiles>
O=c1c2cc(O)ccc2[nH]c2c([N+](=O)[O-])ccc(NCCCN3CCN(CCCNc4c5ccccc5nc5cccc([N+](=O)[O-])c45)CC3)c12

$$$$

  SciTegic03142313312D

 40 45  0  0  0  0            999 V2000
  -15.5968   -1.4742    0.0000 C   0  0
  -14.2956   -0.7279    0.0000 C   0  0
  -14.2913    0.7721    0.0000 C   0  0
  -12.9902    1.5184    0.0000 C   0  0
  -11.6933    0.7648    0.0000 C   0  0
  -10.3929    1.5141    0.0000 N   0  0
  -10.3908    3.0150    0.0000 C   0  0
   -9.0904    3.7644    0.0000 C   0  0
   -9.0883    5.2652    0.0000 N   0  0
   -7.7880    6.0146    0.0000 C   0  0
   -7.7858    7.5154    0.0000 C   0  0
   -6.4855    8.2648    0.0000 N   0  0
   -6.4834    9.7656    0.0000 C   0  0
   -7.7798   10.5202    0.0000 C   0  0
   -9.0814    9.7747    0.0000 C   0  0
  -10.3778   10.5292    0.0000 C   0  0
  -10.3727   12.0292    0.0000 C   0  0
   -9.0710   12.7747    0.0000 C   0  0
   -7.7746   12.0202    0.0000 C   0  0
   -6.4730   12.7657    0.0000 N   0  0
   -5.1765   12.0112    0.0000 C   0  0
   -3.8749   12.7567    0.0000 C   0  0
   -2.5785   12.0022    0.0000 C   0  0
   -2.5837   10.5022    0.0000 C   0  0
   -3.8853    9.7567    0.0000 C   0  0
   -3.8874    8.2559    0.0000 N   0  3
   -2.5899    7.5033    0.0000 O   0  0
   -5.1877    7.5081    0.0000 O   0  5
   -5.1817   10.5112    0.0000 C   0  0
  -11.6975   -0.7352    0.0000 C   0  0
  -10.4006   -1.4889    0.0000 C   0  0
   -9.0995   -0.7426    0.0000 O   0  0
  -10.4049   -2.9889    0.0000 C   0  0
   -9.1080   -3.7426    0.0000 C   0  0
   -9.1123   -5.2426    0.0000 C   0  0
  -10.4134   -5.9889    0.0000 C   0  0
  -11.7103   -5.2352    0.0000 C   0  0
  -11.7061   -3.7352    0.0000 C   0  0
  -13.0030   -2.9815    0.0000 N   0  0
  -12.9987   -1.4815    0.0000 C   0  0
  1  2  1  0
  2  3  2  0
  3  4  1  0
  4  5  2  0
  5  6  1  0
  6  7  1  0
  7  8  1  0
  8  9  1  0
  9 10  1  0
 10 11  1  0
 11 12  1  0
 12 13  1  0
 13 14  2  0
 14 15  1  0
 15 16  2  0
 16 17  1  0
 17 18  2  0
 18 19  1  0
 19 14  1  0
 19 20  2  0
 20 21  1  0
 21 22  2  0
 22 23  1  0
 23 24  2  0
 24 25  1  0
 25 26  1  0
 26 27  2  0
 26 28  1  0
 25 29  2  0
 29 13  1  0
 29 21  1  0
  5 30  1  0
 30 31  1  0
 31 32  2  0
 31 33  1  0
 33 34  2  0
 34 35  1  0
 35 36  2  0
 36 37  1  0
 37 38  2  0
 38 33  1  0
 38 39  1  0
 39 40  1  0
 40  2  1  0
 40 30  2  0
M  CHG  2  26   1  28  -1
M  END
> <assay_chembl_id>
CHEMBL4773128

> <assay_description>
Cytotoxicity against human LNCaP cells assessed as reduction in cell viability measured after 72 hrs by SRB assay

> <document_journal>
Eur J Med Chem

> <molecule_chembl_id>
CHEMBL4788208

> <standard_value>
250

> <IC50_uM>
0.25

> <Activity>
Yes

> <Canonical_Smiles>
Cc1ccc(NCCNCCNc2c3ccccc3nc3cccc([N+](=O)[O-])c23)c2c(=O)c3ccccc3[nH]c12

$$$$

  SciTegic03142313312D

 48 54  0  0  0  0            999 V2000
    2.6378   -1.4308    0.0000 C   0  0
    1.3357   -0.6861    0.0000 C   0  0
    0.0398   -1.4414    0.0000 C   0  0
   -1.2623   -0.6967    0.0000 C   0  0
   -1.2684    0.8033    0.0000 C   0  0
   -2.5728    1.5457    0.0000 N   0  0
   -3.8684    0.7881    0.0000 C   0  0
   -5.1727    1.5306    0.0000 C   0  0
   -6.4683    0.7730    0.0000 C   0  0
   -7.7726    1.5154    0.0000 N   0  0
   -9.0687    0.7602    0.0000 C   0  0
  -10.3708    1.5049    0.0000 C   0  0
  -10.3769    3.0049    0.0000 N   0  0
  -11.6782    3.7526    0.0000 C   0  0
  -11.6822    5.2534    0.0000 C   0  0
  -12.9835    6.0012    0.0000 C   0  0
  -12.9875    7.5020    0.0000 N   0  0
  -14.2888    8.2498    0.0000 C   0  0
  -15.5879    7.4998    0.0000 C   0  0
  -15.5879    5.9998    0.0000 C   0  0
  -16.8869    5.2498    0.0000 C   0  0
  -18.1860    5.9998    0.0000 C   0  0
  -18.1860    7.4998    0.0000 C   0  0
  -16.8869    8.2498    0.0000 C   0  0
  -16.8870    9.7498    0.0000 N   0  0
  -15.5879   10.4998    0.0000 C   0  0
  -15.5879   11.9998    0.0000 C   0  0
  -14.2889   12.7498    0.0000 C   0  0
  -12.9898   11.9998    0.0000 C   0  0
  -12.9898   10.4998    0.0000 C   0  0
  -11.6885    9.7521    0.0000 N   0  3
  -10.3906   10.5040    0.0000 O   0  0
  -11.6859    8.2521    0.0000 O   0  5
  -14.2889    9.7498    0.0000 C   0  0
   -9.0810    3.7602    0.0000 C   0  0
   -7.7789    3.0155    0.0000 C   0  0
    0.0275    1.5585    0.0000 C   0  0
    0.0214    3.0585    0.0000 C   0  0
   -1.2807    3.8032    0.0000 O   0  0
    1.3174    3.8138    0.0000 C   0  0
    1.3113    5.3138    0.0000 C   0  0
    2.6073    6.0691    0.0000 C   0  0
    2.6012    7.5691    0.0000 O   0  0
    3.9093    5.3244    0.0000 C   0  0
    3.9155    3.8244    0.0000 C   0  0
    2.6195    3.0691    0.0000 C   0  0
    2.6256    1.5691    0.0000 N   0  0
    1.3296    0.8138    0.0000 C   0  0
  1  2  1  0
  2  3  2  0
  3  4  1  0
  4  5  2  0
  5  6  1  0
  6  7  1  0
  7  8  1  0
  8  9  1  0
  9 10  1  0
 10 11  1  0
 11 12  1  0
 12 13  1  0
 13 14  1  0
 14 15  1  0
 15 16  1  0
 16 17  1  0
 17 18  1  0
 18 19  2  0
 19 20  1  0
 20 21  2  0
 21 22  1  0
 22 23  2  0
 23 24  1  0
 24 19  1  0
 24 25  2  0
 25 26  1  0
 26 27  2  0
 27 28  1  0
 28 29  2  0
 29 30  1  0
 30 31  1  0
 31 32  2  0
 31 33  1  0
 30 34  2  0
 34 18  1  0
 34 26  1  0
 13 35  1  0
 35 36  1  0
 36 10  1  0
  5 37  1  0
 37 38  1  0
 38 39  2  0
 38 40  1  0
 40 41  2  0
 41 42  1  0
 42 43  1  0
 42 44  2  0
 44 45  1  0
 45 46  2  0
 46 40  1  0
 46 47  1  0
 47 48  1  0
 48  2  1  0
 48 37  2  0
M  CHG  2  31   1  33  -1
M  END
> <assay_chembl_id>
CHEMBL4773128

> <assay_description>
Cytotoxicity against human LNCaP cells assessed as reduction in cell viability measured after 72 hrs by SRB assay

> <document_journal>
Eur J Med Chem

> <molecule_chembl_id>
CHEMBL4791829

> <standard_value>
84

> <IC50_uM>
0.084

> <Activity>
Yes

> <Canonical_Smiles>
Cc1ccc(NCCCN2CCN(CCCNc3c4ccccc4nc4cccc([N+](=O)[O-])c34)CC2)c2c(=O)c3cc(O)ccc3[nH]c12

$$$$

  SciTegic03142313312D

 41 46  0  0  0  0            999 V2000
    2.5981   -1.5000    0.0000 C   0  0
    1.2990   -0.7500    0.0000 C   0  0
    1.2990    0.7500    0.0000 C   0  0
    0.0000    1.5000    0.0000 C   0  0
   -1.2990    0.7500    0.0000 C   0  0
   -2.5973    1.5031    0.0000 N   0  3
   -2.5951    3.0031    0.0000 O   0  0
   -3.8976    0.7553    0.0000 O   0  5
   -1.2990   -0.7500    0.0000 C   0  0
   -2.5981   -1.5000    0.0000 C   0  0
   -3.8994   -0.7523    0.0000 N   0  0
   -5.1981   -1.5046    0.0000 C   0  0
   -6.4994   -0.7568    0.0000 C   0  0
   -7.7980   -1.5091    0.0000 N   0  0
   -9.0993   -0.7614    0.0000 C   0  0
  -10.3980   -1.5136    0.0000 C   0  0
  -11.6993   -0.7659    0.0000 N   0  0
  -12.9980   -1.5182    0.0000 C   0  0
  -12.9929   -3.0183    0.0000 C   0  0
  -14.2893   -3.7727    0.0000 C   0  0
  -15.5909   -3.0272    0.0000 C   0  0
  -16.8874   -3.7817    0.0000 C   0  0
  -15.5961   -1.5273    0.0000 C   0  0
  -16.8978   -0.7818    0.0000 N   0  0
  -16.9029    0.7182    0.0000 C   0  0
  -18.2046    1.4637    0.0000 C   0  0
  -18.2098    2.9637    0.0000 C   0  0
  -16.9133    3.7182    0.0000 C   0  0
  -15.6117    2.9727    0.0000 C   0  0
  -15.6065    1.4727    0.0000 C   0  0
  -14.3049    0.7272    0.0000 C   0  0
  -13.0084    1.4817    0.0000 O   0  0
  -14.2997   -0.7728    0.0000 C   0  0
   -2.5981   -3.0000    0.0000 C   0  0
   -3.8971   -3.7500    0.0000 C   0  0
   -3.8971   -5.2500    0.0000 C   0  0
   -2.5980   -6.0000    0.0000 C   0  0
   -1.2990   -5.2500    0.0000 C   0  0
   -1.2990   -3.7500    0.0000 C   0  0
    0.0000   -3.0000    0.0000 N   0  0
    0.0000   -1.5000    0.0000 C   0  0
  1  2  1  0
  2  3  2  0
  3  4  1  0
  4  5  2  0
  5  6  1  0
  6  7  2  0
  6  8  1  0
  5  9  1  0
  9 10  2  0
 10 11  1  0
 11 12  1  0
 12 13  1  0
 13 14  1  0
 14 15  1  0
 15 16  1  0
 16 17  1  0
 17 18  1  0
 18 19  2  0
 19 20  1  0
 20 21  2  0
 21 22  1  0
 21 23  1  0
 23 24  1  0
 24 25  1  0
 25 26  2  0
 26 27  1  0
 27 28  2  0
 28 29  1  0
 29 30  2  0
 30 25  1  0
 30 31  1  0
 31 32  2  0
 31 33  1  0
 33 18  1  0
 33 23  2  0
 10 34  1  0
 34 35  2  0
 35 36  1  0
 36 37  2  0
 37 38  1  0
 38 39  2  0
 39 34  1  0
 39 40  1  0
 40 41  2  0
 41  2  1  0
 41  9  1  0
M  CHG  2   6   1   8  -1
M  END
> <assay_chembl_id>
CHEMBL4773128

> <assay_description>
Cytotoxicity against human LNCaP cells assessed as reduction in cell viability measured after 72 hrs by SRB assay

> <document_journal>
Eur J Med Chem

> <molecule_chembl_id>
CHEMBL4800638

> <standard_value>
250

> <IC50_uM>
0.25

> <Activity>
Yes

> <Canonical_Smiles>
Cc1ccc([N+](=O)[O-])c2c(NCCNCCNc3ccc(C)c4[nH]c5ccccc5c(=O)c34)c3ccccc3nc12

$$$$

  SciTegic03142313312D

 49 55  0  0  0  0            999 V2000
    2.5981   -1.5000    0.0000 C   0  0
    1.2990   -0.7500    0.0000 C   0  0
    1.2990    0.7500    0.0000 C   0  0
    0.0000    1.5000    0.0000 C   0  0
   -1.2990    0.7500    0.0000 C   0  0
   -2.5973    1.5031    0.0000 N   0  3
   -2.5951    3.0031    0.0000 O   0  0
   -3.8976    0.7553    0.0000 O   0  5
   -1.2990   -0.7500    0.0000 C   0  0
   -2.5981   -1.5000    0.0000 C   0  0
   -3.8994   -0.7523    0.0000 N   0  0
   -5.1981   -1.5046    0.0000 C   0  0
   -6.4994   -0.7568    0.0000 C   0  0
   -7.7980   -1.5091    0.0000 C   0  0
   -9.0993   -0.7614    0.0000 N   0  0
  -10.3984   -1.5113    0.0000 C   0  0
  -11.6975   -0.7614    0.0000 C   0  0
  -11.6975    0.7386    0.0000 N   0  0
  -12.9958    1.4917    0.0000 C   0  0
  -12.9937    2.9925    0.0000 C   0  0
  -14.2919    3.7455    0.0000 C   0  0
  -14.2898    5.2464    0.0000 N   0  0
  -15.5880    5.9994    0.0000 C   0  0
  -16.8872    5.2494    0.0000 C   0  0
  -18.1862    5.9994    0.0000 C   0  0
  -18.1862    7.4994    0.0000 C   0  0
  -19.4853    8.2494    0.0000 C   0  0
  -16.8872    8.2494    0.0000 C   0  0
  -16.8872    9.7494    0.0000 N   0  0
  -15.5881   10.4994    0.0000 C   0  0
  -15.5881   11.9994    0.0000 C   0  0
  -14.2891   12.7494    0.0000 C   0  0
  -12.9901   11.9994    0.0000 C   0  0
  -11.6910   12.7494    0.0000 O   0  0
  -12.9901   10.4994    0.0000 C   0  0
  -14.2891    9.7494    0.0000 C   0  0
  -14.2891    8.2494    0.0000 C   0  0
  -12.9901    7.4994    0.0000 O   0  0
  -15.5881    7.4994    0.0000 C   0  0
  -10.3985    1.4887    0.0000 C   0  0
   -9.0995    0.7387    0.0000 C   0  0
   -2.5981   -3.0000    0.0000 C   0  0
   -3.8971   -3.7500    0.0000 C   0  0
   -3.8971   -5.2500    0.0000 C   0  0
   -2.5980   -6.0000    0.0000 C   0  0
   -1.2990   -5.2500    0.0000 C   0  0
   -1.2990   -3.7500    0.0000 C   0  0
    0.0000   -3.0000    0.0000 N   0  0
    0.0000   -1.5000    0.0000 C   0  0
  1  2  1  0
  2  3  2  0
  3  4  1  0
  4  5  2  0
  5  6  1  0
  6  7  2  0
  6  8  1  0
  5  9  1  0
  9 10  2  0
 10 11  1  0
 11 12  1  0
 12 13  1  0
 13 14  1  0
 14 15  1  0
 15 16  1  0
 16 17  1  0
 17 18  1  0
 18 19  1  0
 19 20  1  0
 20 21  1  0
 21 22  1  0
 22 23  1  0
 23 24  2  0
 24 25  1  0
 25 26  2  0
 26 27  1  0
 26 28  1  0
 28 29  1  0
 29 30  1  0
 30 31  2  0
 31 32  1  0
 32 33  2  0
 33 34  1  0
 33 35  1  0
 35 36  2  0
 36 30  1  0
 36 37  1  0
 37 38  2  0
 37 39  1  0
 39 23  1  0
 39 28  2  0
 18 40  1  0
 40 41  1  0
 41 15  1  0
 10 42  1  0
 42 43  2  0
 43 44  1  0
 44 45  2  0
 45 46  1  0
 46 47  2  0
 47 42  1  0
 47 48  1  0
 48 49  2  0
 49  2  1  0
 49  9  1  0
M  CHG  2   6   1   8  -1
M  END
> <assay_chembl_id>
CHEMBL4773128

> <assay_description>
Cytotoxicity against human LNCaP cells assessed as reduction in cell viability measured after 72 hrs by SRB assay

> <document_journal>
Eur J Med Chem

> <molecule_chembl_id>
CHEMBL4783708

> <standard_value>
300

> <IC50_uM>
0.3

> <Activity>
Yes

> <Canonical_Smiles>
Cc1ccc([N+](=O)[O-])c2c(NCCCN3CCN(CCCNc4ccc(C)c5[nH]c6ccc(O)cc6c(=O)c45)CC3)c3ccccc3nc12

$$$$

  SciTegic03142313312D

 47 52  0  0  0  0            999 V2000
    2.5981   -1.5000    0.0000 C   0  0
    1.2990   -0.7500    0.0000 C   0  0
    1.2990    0.7500    0.0000 C   0  0
    0.0000    1.5000    0.0000 C   0  0
   -1.2990    0.7500    0.0000 C   0  0
   -2.5973    1.5031    0.0000 N   0  3
   -2.5951    3.0031    0.0000 O   0  0
   -3.8976    0.7553    0.0000 O   0  5
   -1.2990   -0.7500    0.0000 C   0  0
   -2.5981   -1.5000    0.0000 C   0  0
   -3.8994   -0.7523    0.0000 N   0  0
   -5.1981   -1.5046    0.0000 C   0  0
   -6.4994   -0.7568    0.0000 C   0  0
   -7.7980   -1.5091    0.0000 C   0  0
   -9.0993   -0.7614    0.0000 N   0  0
   -9.1020    0.7386    0.0000 C   0  0
  -10.3980   -1.5136    0.0000 C   0  0
  -11.6993   -0.7659    0.0000 C   0  0
  -12.9980   -1.5182    0.0000 C   0  0
  -14.2993   -0.7705    0.0000 N   0  0
  -15.5980   -1.5227    0.0000 C   0  0
  -15.5928   -3.0228    0.0000 C   0  0
  -16.8893   -3.7773    0.0000 C   0  0
  -18.1909   -3.0318    0.0000 C   0  0
  -19.4865   -3.7894    0.0000 N   0  3
  -19.4792   -5.2894    0.0000 O   0  0
  -20.7894   -3.0461    0.0000 O   0  5
  -18.1961   -1.5318    0.0000 C   0  0
  -19.4977   -0.7863    0.0000 N   0  0
  -19.5029    0.7137    0.0000 C   0  0
  -20.8045    1.4592    0.0000 C   0  0
  -20.8097    2.9592    0.0000 C   0  0
  -19.5133    3.7137    0.0000 C   0  0
  -19.5185    5.2137    0.0000 O   0  0
  -18.2117    2.9682    0.0000 C   0  0
  -18.2065    1.4682    0.0000 C   0  0
  -16.9049    0.7227    0.0000 C   0  0
  -15.6084    1.4772    0.0000 O   0  0
  -16.8997   -0.7773    0.0000 C   0  0
   -2.5981   -3.0000    0.0000 C   0  0
   -3.8971   -3.7500    0.0000 C   0  0
   -3.8971   -5.2500    0.0000 C   0  0
   -2.5980   -6.0000    0.0000 C   0  0
   -1.2990   -5.2500    0.0000 C   0  0
   -1.2990   -3.7500    0.0000 C   0  0
    0.0000   -3.0000    0.0000 N   0  0
    0.0000   -1.5000    0.0000 C   0  0
  1  2  1  0
  2  3  2  0
  3  4  1  0
  4  5  2  0
  5  6  1  0
  6  7  2  0
  6  8  1  0
  5  9  1  0
  9 10  2  0
 10 11  1  0
 11 12  1  0
 12 13  1  0
 13 14  1  0
 14 15  1  0
 15 16  1  0
 15 17  1  0
 17 18  1  0
 18 19  1  0
 19 20  1  0
 20 21  1  0
 21 22  2  0
 22 23  1  0
 23 24  2  0
 24 25  1  0
 25 26  2  0
 25 27  1  0
 24 28  1  0
 28 29  1  0
 29 30  1  0
 30 31  2  0
 31 32  1  0
 32 33  2  0
 33 34  1  0
 33 35  1  0
 35 36  2  0
 36 30  1  0
 36 37  1  0
 37 38  2  0
 37 39  1  0
 39 21  1  0
 39 28  2  0
 10 40  1  0
 40 41  2  0
 41 42  1  0
 42 43  2  0
 43 44  1  0
 44 45  2  0
 45 40  1  0
 45 46  1  0
 46 47  2  0
 47  2  1  0
 47  9  1  0
M  CHG  4   6   1   8  -1  25   1  27  -1
M  END
> <assay_chembl_id>
CHEMBL4773128

> <assay_description>
Cytotoxicity against human LNCaP cells assessed as reduction in cell viability measured after 72 hrs by SRB assay

> <document_journal>
Eur J Med Chem

> <molecule_chembl_id>
CHEMBL4777375

> <standard_value>
377

> <IC50_uM>
0.377

> <Activity>
Yes

> <Canonical_Smiles>
Cc1ccc([N+](=O)[O-])c2c(NCCCN(C)CCCNc3ccc([N+](=O)[O-])c4[nH]c5ccc(O)cc5c(=O)c34)c3ccccc3nc12

$$$$

  SciTegic03142313312D

 46 51  0  0  0  0            999 V2000
    2.5981   -1.5000    0.0000 C   0  0
    1.2990   -0.7500    0.0000 C   0  0
    1.2990    0.7500    0.0000 C   0  0
    0.0000    1.5000    0.0000 C   0  0
   -1.2990    0.7500    0.0000 C   0  0
   -2.5973    1.5031    0.0000 N   0  3
   -2.5951    3.0031    0.0000 O   0  0
   -3.8976    0.7553    0.0000 O   0  5
   -1.2990   -0.7500    0.0000 C   0  0
   -2.5981   -1.5000    0.0000 C   0  0
   -3.8994   -0.7523    0.0000 N   0  0
   -5.1981   -1.5046    0.0000 C   0  0
   -6.4994   -0.7568    0.0000 C   0  0
   -7.7980   -1.5091    0.0000 C   0  0
   -9.0993   -0.7614    0.0000 N   0  0
  -10.3980   -1.5136    0.0000 C   0  0
  -11.6993   -0.7659    0.0000 C   0  0
  -12.9980   -1.5182    0.0000 C   0  0
  -14.2993   -0.7705    0.0000 N   0  0
  -15.5980   -1.5227    0.0000 C   0  0
  -15.5928   -3.0228    0.0000 C   0  0
  -16.8893   -3.7773    0.0000 C   0  0
  -18.1909   -3.0318    0.0000 C   0  0
  -19.4865   -3.7894    0.0000 N   0  3
  -19.4792   -5.2894    0.0000 O   0  0
  -20.7894   -3.0461    0.0000 O   0  5
  -18.1961   -1.5318    0.0000 C   0  0
  -19.4977   -0.7863    0.0000 N   0  0
  -19.5029    0.7137    0.0000 C   0  0
  -20.8045    1.4592    0.0000 C   0  0
  -20.8097    2.9592    0.0000 C   0  0
  -19.5133    3.7137    0.0000 C   0  0
  -19.5185    5.2137    0.0000 O   0  0
  -18.2117    2.9682    0.0000 C   0  0
  -18.2065    1.4682    0.0000 C   0  0
  -16.9049    0.7227    0.0000 C   0  0
  -15.6084    1.4772    0.0000 O   0  0
  -16.8997   -0.7773    0.0000 C   0  0
   -2.5981   -3.0000    0.0000 C   0  0
   -3.8971   -3.7500    0.0000 C   0  0
   -3.8971   -5.2500    0.0000 C   0  0
   -2.5980   -6.0000    0.0000 C   0  0
   -1.2990   -5.2500    0.0000 C   0  0
   -1.2990   -3.7500    0.0000 C   0  0
    0.0000   -3.0000    0.0000 N   0  0
    0.0000   -1.5000    0.0000 C   0  0
  1  2  1  0
  2  3  2  0
  3  4  1  0
  4  5  2  0
  5  6  1  0
  6  7  2  0
  6  8  1  0
  5  9  1  0
  9 10  2  0
 10 11  1  0
 11 12  1  0
 12 13  1  0
 13 14  1  0
 14 15  1  0
 15 16  1  0
 16 17  1  0
 17 18  1  0
 18 19  1  0
 19 20  1  0
 20 21  2  0
 21 22  1  0
 22 23  2  0
 23 24  1  0
 24 25  2  0
 24 26  1  0
 23 27  1  0
 27 28  1  0
 28 29  1  0
 29 30  2  0
 30 31  1  0
 31 32  2  0
 32 33  1  0
 32 34  1  0
 34 35  2  0
 35 29  1  0
 35 36  1  0
 36 37  2  0
 36 38  1  0
 38 20  1  0
 38 27  2  0
 10 39  1  0
 39 40  2  0
 40 41  1  0
 41 42  2  0
 42 43  1  0
 43 44  2  0
 44 39  1  0
 44 45  1  0
 45 46  2  0
 46  2  1  0
 46  9  1  0
M  CHG  4   6   1   8  -1  24   1  26  -1
M  END
> <assay_chembl_id>
CHEMBL4773128

> <assay_description>
Cytotoxicity against human LNCaP cells assessed as reduction in cell viability measured after 72 hrs by SRB assay

> <document_journal>
Eur J Med Chem

> <molecule_chembl_id>
CHEMBL4784311

> <standard_value>
123

> <IC50_uM>
0.123

> <Activity>
Yes

> <Canonical_Smiles>
Cc1ccc([N+](=O)[O-])c2c(NCCCNCCCNc3ccc([N+](=O)[O-])c4[nH]c5ccc(O)cc5c(=O)c34)c3ccccc3nc12

$$$$

  SciTegic03142313312D

 43 48  0  0  0  0            999 V2000
    2.5981   -1.5000    0.0000 C   0  0
    1.2990   -0.7500    0.0000 C   0  0
    1.2990    0.7500    0.0000 C   0  0
    0.0000    1.5000    0.0000 C   0  0
   -1.2990    0.7500    0.0000 C   0  0
   -2.5973    1.5031    0.0000 N   0  3
   -2.5951    3.0031    0.0000 O   0  0
   -3.8976    0.7553    0.0000 O   0  5
   -1.2990   -0.7500    0.0000 C   0  0
   -2.5981   -1.5000    0.0000 C   0  0
   -3.8994   -0.7523    0.0000 N   0  0
   -5.1981   -1.5046    0.0000 C   0  0
   -6.4994   -0.7568    0.0000 C   0  0
   -7.7980   -1.5091    0.0000 C   0  0
   -9.0993   -0.7614    0.0000 N   0  0
  -10.3980   -1.5136    0.0000 C   0  0
  -11.6993   -0.7659    0.0000 C   0  0
  -12.9980   -1.5182    0.0000 C   0  0
  -14.2993   -0.7705    0.0000 N   0  0
  -15.5980   -1.5227    0.0000 C   0  0
  -15.5928   -3.0228    0.0000 C   0  0
  -16.8893   -3.7773    0.0000 C   0  0
  -18.1909   -3.0318    0.0000 C   0  0
  -19.4873   -3.7863    0.0000 C   0  0
  -18.1961   -1.5318    0.0000 C   0  0
  -19.4977   -0.7863    0.0000 N   0  0
  -19.5029    0.7137    0.0000 C   0  0
  -20.8045    1.4592    0.0000 C   0  0
  -20.8097    2.9592    0.0000 C   0  0
  -19.5133    3.7137    0.0000 C   0  0
  -18.2117    2.9682    0.0000 C   0  0
  -18.2065    1.4682    0.0000 C   0  0
  -16.9049    0.7227    0.0000 C   0  0
  -15.6084    1.4772    0.0000 O   0  0
  -16.8997   -0.7773    0.0000 C   0  0
   -2.5981   -3.0000    0.0000 C   0  0
   -3.8971   -3.7500    0.0000 C   0  0
   -3.8971   -5.2500    0.0000 C   0  0
   -2.5980   -6.0000    0.0000 C   0  0
   -1.2990   -5.2500    0.0000 C   0  0
   -1.2990   -3.7500    0.0000 C   0  0
    0.0000   -3.0000    0.0000 N   0  0
    0.0000   -1.5000    0.0000 C   0  0
  1  2  1  0
  2  3  2  0
  3  4  1  0
  4  5  2  0
  5  6  1  0
  6  7  2  0
  6  8  1  0
  5  9  1  0
  9 10  2  0
 10 11  1  0
 11 12  1  0
 12 13  1  0
 13 14  1  0
 14 15  1  0
 15 16  1  0
 16 17  1  0
 17 18  1  0
 18 19  1  0
 19 20  1  0
 20 21  2  0
 21 22  1  0
 22 23  2  0
 23 24  1  0
 23 25  1  0
 25 26  1  0
 26 27  1  0
 27 28  2  0
 28 29  1  0
 29 30  2  0
 30 31  1  0
 31 32  2  0
 32 27  1  0
 32 33  1  0
 33 34  2  0
 33 35  1  0
 35 20  1  0
 35 25  2  0
 10 36  1  0
 36 37  2  0
 37 38  1  0
 38 39  2  0
 39 40  1  0
 40 41  2  0
 41 36  1  0
 41 42  1  0
 42 43  2  0
 43  2  1  0
 43  9  1  0
M  CHG  2   6   1   8  -1
M  END
> <assay_chembl_id>
CHEMBL4773128

> <assay_description>
Cytotoxicity against human LNCaP cells assessed as reduction in cell viability measured after 72 hrs by SRB assay

> <document_journal>
Eur J Med Chem

> <molecule_chembl_id>
CHEMBL4786611

> <standard_value>
213

> <IC50_uM>
0.213

> <Activity>
Yes

> <Canonical_Smiles>
Cc1ccc([N+](=O)[O-])c2c(NCCCNCCCNc3ccc(C)c4[nH]c5ccccc5c(=O)c34)c3ccccc3nc12

$$$$

  SciTegic03142313312D

 44 49  0  0  0  0            999 V2000
    2.5981   -1.5000    0.0000 C   0  0
    1.2990   -0.7500    0.0000 C   0  0
    1.2990    0.7500    0.0000 C   0  0
    0.0000    1.5000    0.0000 C   0  0
   -1.2990    0.7500    0.0000 C   0  0
   -2.5973    1.5031    0.0000 N   0  3
   -2.5951    3.0031    0.0000 O   0  0
   -3.8976    0.7553    0.0000 O   0  5
   -1.2990   -0.7500    0.0000 C   0  0
   -2.5981   -1.5000    0.0000 C   0  0
   -3.8994   -0.7523    0.0000 N   0  0
   -5.1981   -1.5046    0.0000 C   0  0
   -6.4994   -0.7568    0.0000 C   0  0
   -7.7980   -1.5091    0.0000 C   0  0
   -9.0993   -0.7614    0.0000 N   0  0
   -9.1020    0.7386    0.0000 C   0  0
  -10.3980   -1.5136    0.0000 C   0  0
  -11.6993   -0.7659    0.0000 C   0  0
  -12.9980   -1.5182    0.0000 C   0  0
  -14.2993   -0.7705    0.0000 N   0  0
  -15.5980   -1.5227    0.0000 C   0  0
  -15.5928   -3.0228    0.0000 C   0  0
  -16.8893   -3.7773    0.0000 C   0  0
  -18.1909   -3.0318    0.0000 C   0  0
  -19.4873   -3.7863    0.0000 C   0  0
  -18.1961   -1.5318    0.0000 C   0  0
  -19.4977   -0.7863    0.0000 N   0  0
  -19.5029    0.7137    0.0000 C   0  0
  -20.8045    1.4592    0.0000 C   0  0
  -20.8097    2.9592    0.0000 C   0  0
  -19.5133    3.7137    0.0000 C   0  0
  -18.2117    2.9682    0.0000 C   0  0
  -18.2065    1.4682    0.0000 C   0  0
  -16.9049    0.7227    0.0000 C   0  0
  -15.6084    1.4772    0.0000 O   0  0
  -16.8997   -0.7773    0.0000 C   0  0
   -2.5981   -3.0000    0.0000 C   0  0
   -3.8971   -3.7500    0.0000 C   0  0
   -3.8971   -5.2500    0.0000 C   0  0
   -2.5980   -6.0000    0.0000 C   0  0
   -1.2990   -5.2500    0.0000 C   0  0
   -1.2990   -3.7500    0.0000 C   0  0
    0.0000   -3.0000    0.0000 N   0  0
    0.0000   -1.5000    0.0000 C   0  0
  1  2  1  0
  2  3  2  0
  3  4  1  0
  4  5  2  0
  5  6  1  0
  6  7  2  0
  6  8  1  0
  5  9  1  0
  9 10  2  0
 10 11  1  0
 11 12  1  0
 12 13  1  0
 13 14  1  0
 14 15  1  0
 15 16  1  0
 15 17  1  0
 17 18  1  0
 18 19  1  0
 19 20  1  0
 20 21  1  0
 21 22  2  0
 22 23  1  0
 23 24  2  0
 24 25  1  0
 24 26  1  0
 26 27  1  0
 27 28  1  0
 28 29  2  0
 29 30  1  0
 30 31  2  0
 31 32  1  0
 32 33  2  0
 33 28  1  0
 33 34  1  0
 34 35  2  0
 34 36  1  0
 36 21  1  0
 36 26  2  0
 10 37  1  0
 37 38  2  0
 38 39  1  0
 39 40  2  0
 40 41  1  0
 41 42  2  0
 42 37  1  0
 42 43  1  0
 43 44  2  0
 44  2  1  0
 44  9  1  0
M  CHG  2   6   1   8  -1
M  END
> <assay_chembl_id>
CHEMBL4773128

> <assay_description>
Cytotoxicity against human LNCaP cells assessed as reduction in cell viability measured after 72 hrs by SRB assay

> <document_journal>
Eur J Med Chem

> <molecule_chembl_id>
CHEMBL4791145

> <standard_value>
197

> <IC50_uM>
0.197

> <Activity>
Yes

> <Canonical_Smiles>
Cc1ccc([N+](=O)[O-])c2c(NCCCN(C)CCCNc3ccc(C)c4[nH]c5ccccc5c(=O)c34)c3ccccc3nc12

$$$$

  SciTegic03142313312D

 31 33  0  0  0  0            999 V2000
    9.0758   -8.2712    0.0000 C   0  0
    7.7795   -7.5165    0.0000 C   0  0
    7.7840   -6.0157    0.0000 C   0  0
    6.4870   -5.2605    0.0000 S   0  0
    5.1855   -6.0062    0.0000 O   0  0
    6.4818   -6.7605    0.0000 O   0  0
    6.4915   -3.7597    0.0000 N   0  0
    5.1945   -3.0045    0.0000 C   0  0
    5.1969   -1.5045    0.0000 C   0  0
    3.8991   -0.7525    0.0000 C   0  0
    2.5987   -1.5004    0.0000 C   0  0
    1.2990   -0.7500    0.0000 C   0  0
    1.2990    0.7500    0.0000 C   0  0
    0.0000    1.5000    0.0000 C   0  0
    0.0000    3.0000    0.0000 O   0  0
   -1.2990    0.7500    0.0000 C   0  0
   -2.5981    1.5000    0.0000 C   0  0
   -2.5981    3.0000    0.0000 O   0  0
   -3.8971    0.7500    0.0000 C   0  0
   -3.8971   -0.7500    0.0000 C   0  0
   -5.1984   -1.4978    0.0000 O   0  0
   -6.4964   -0.7459    0.0000 C   0  0
   -2.5981   -1.5000    0.0000 C   0  0
   -2.6011   -3.0008    0.0000 O   0  0
   -3.9020   -3.7494    0.0000 C   0  0
   -3.9050   -5.2494    0.0000 C   0  0
   -5.1997   -2.9972    0.0000 C   0  0
   -1.2990   -0.7500    0.0000 C   0  0
    0.0000   -1.5000    0.0000 O   0  0
    2.5965   -3.0004    0.0000 C   0  0
    3.8943   -3.7525    0.0000 C   0  0
  1  2  1  0
  2  3  1  0
  3  4  1  0
  4  5  2  0
  4  6  2  0
  4  7  1  0
  7  8  1  0
  8  9  2  0
  9 10  1  0
 10 11  2  0
 11 12  1  0
 12 13  2  0
 13 14  1  0
 14 15  2  0
 14 16  1  0
 16 17  2  0
 17 18  1  0
 17 19  1  0
 19 20  2  0
 20 21  1  0
 21 22  1  0
 20 23  1  0
 23 24  1  0
 24 25  1  0
 25 26  1  0
 25 27  1  0
 23 28  2  0
 28 16  1  0
 28 29  1  0
 29 12  1  0
 11 30  1  0
 30 31  2  0
 31  8  1  0
M  END
> <assay_chembl_id>
CHEMBL4817579

> <assay_description>
Antiproliferative activity against AR-positive human LNCaP cells assessed as reduction in cell viability incubated for 3 days by MTT assay

> <document_journal>
Eur J Med Chem

> <molecule_chembl_id>
CHEMBL4870009

> <standard_value>
30500

> <IC50_uM>
30.5

> <Activity>
No

> <Canonical_Smiles>
CCCS(=O)(=O)Nc1ccc(-c2cc(=O)c3c(O)cc(OC)c(OC(C)C)c3o2)cc1

$$$$

  SciTegic03142313312D

 34 37  0  0  0  0            999 V2000
    3.8983   -0.7459    0.0000 C   0  0
    2.6003   -1.4977    0.0000 O   0  0
    1.2990   -0.7500    0.0000 C   0  0
    1.2990    0.7500    0.0000 C   0  0
    0.0000    1.5000    0.0000 C   0  0
    0.0000    3.0000    0.0000 O   0  0
   -1.2990    0.7500    0.0000 C   0  0
   -2.5981    1.5000    0.0000 C   0  0
   -2.5981    3.0000    0.0000 O   0  0
   -3.8971    0.7500    0.0000 C   0  0
   -3.8971   -0.7500    0.0000 C   0  0
   -5.1968   -1.5004    0.0000 C   0  0
   -6.4971   -0.7525    0.0000 C   0  0
   -7.7950   -1.5046    0.0000 C   0  0
   -7.7926   -3.0046    0.0000 C   0  0
   -9.0896   -3.7598    0.0000 N   0  0
   -9.0851   -5.2606    0.0000 C   0  0
   -7.7835   -6.0062    0.0000 O   0  0
  -10.3821   -6.0157    0.0000 N   0  0
  -10.2819   -7.5197    0.0000 C   0  0
  -11.3798   -8.5417    0.0000 C   0  0
  -12.8635   -8.3206    0.0000 C   0  0
  -13.6156   -7.0228    0.0000 N   0  0
  -13.0698   -5.6256    0.0000 C   0  0
  -11.6372   -5.1811    0.0000 C   0  0
   -6.4923   -3.7525    0.0000 C   0  0
   -5.1945   -3.0005    0.0000 C   0  0
   -2.5981   -1.5000    0.0000 O   0  0
   -1.2990   -0.7500    0.0000 C   0  0
    0.0000   -1.5000    0.0000 C   0  0
    0.0031   -3.0008    0.0000 O   0  0
    1.3039   -3.7494    0.0000 C   0  0
    1.3070   -5.2494    0.0000 C   0  0
    2.6016   -2.9971    0.0000 C   0  0
  1  2  1  0
  2  3  1  0
  3  4  2  0
  4  5  1  0
  5  6  1  0
  5  7  2  0
  7  8  1  0
  8  9  2  0
  8 10  1  0
 10 11  2  0
 11 12  1  0
 12 13  2  0
 13 14  1  0
 14 15  2  0
 15 16  1  0
 16 17  1  0
 17 18  2  0
 17 19  1  0
 19 20  1  0
 20 21  1  0
 21 22  1  0
 22 23  1  0
 23 24  1  0
 24 25  1  0
 25 19  1  0
 15 26  1  0
 26 27  2  0
 27 12  1  0
 11 28  1  0
 28 29  1  0
 29  7  1  0
 29 30  2  0
 30  3  1  0
 30 31  1  0
 31 32  1  0
 32 33  1  0
 32 34  1  0
M  END
> <assay_chembl_id>
CHEMBL4817579

> <assay_description>
Antiproliferative activity against AR-positive human LNCaP cells assessed as reduction in cell viability incubated for 3 days by MTT assay

> <document_journal>
Eur J Med Chem

> <molecule_chembl_id>
CHEMBL4852825

> <standard_value>
22500

> <IC50_uM>
22.5

> <Activity>
No

> <Canonical_Smiles>
COc1cc(O)c2c(=O)cc(-c3ccc(NC(=O)N4CCCNCC4)cc3)oc2c1OC(C)C

$$$$

  SciTegic03142313312D

 48 54  0  0  1  0            999 V2000
    7.9167  -15.2016    0.0000 C   0  0
    7.1359  -13.9208    0.0000 O   0  0
    7.8542  -12.6030    0.0000 C   0  0
    9.3538  -12.5668    0.0000 O   0  0
    7.0730  -11.3216    0.0000 C   0  0
    7.7891  -10.0035    0.0000 C   0  0
    7.0056   -8.7244    0.0000 C   0  0
    5.5111   -8.7640    0.0000 C   0  0
    4.6332   -7.5468    0.0000 C   0  0
    5.1017   -6.1218    0.0000 C   0  0
    3.8912   -5.2578    0.0000 N   0  0
    3.8933   -3.7570    0.0000 C   0  0
    2.5951   -3.0039    0.0000 C   0  0
    1.2948   -3.7516    0.0000 O   0  0
    2.5973   -1.5031    0.0000 O   0  0
    1.2990   -0.7500    0.0000 C   0  0  1  0  0  0
    1.2990    0.7500    0.0000 C   0  0
    2.5981    1.5000    0.0000 C   0  0
    2.5981    3.0000    0.0000 C   0  0
    1.2990    3.7500    0.0000 C   0  0
    0.0000    3.0000    0.0000 C   0  0
    0.0000    1.5000    0.0000 C   0  0
   -1.2990    0.7500    0.0000 C   0  0  1  0  0  0
   -2.5987    1.5004    0.0000 C   0  0
   -3.8991    0.7525    0.0000 C   0  0
   -5.1969    1.5045    0.0000 C   0  0
   -6.4963    0.7535    0.0000 O   0  0
   -6.4966   -0.7465    0.0000 C   0  0
   -5.1945    3.0045    0.0000 C   0  0
   -6.4916    3.7597    0.0000 O   0  0
   -6.4870    5.2597    0.0000 C   0  0
   -3.8943    3.7525    0.0000 C   0  0
   -3.8888    5.2533    0.0000 O   0  0
   -2.5876    5.9994    0.0000 C   0  0
   -2.5965    3.0004    0.0000 C   0  0
   -1.2990   -0.7500    0.0000 C   0  0  1  0  0  0
   -2.4133   -1.7530    0.0000 C   0  0
   -3.8805   -1.4410    0.0000 O   0  0
   -1.8032   -3.1233    0.0000 O   0  0
   -0.3114   -2.9665    0.0000 C   0  0
    0.0000   -1.5000    0.0000 C   0  0  2  0  0  0
    1.6104    5.2165    0.0000 O   0  0
    3.1022    5.3733    0.0000 C   0  0
    3.7123    4.0030    0.0000 O   0  0
    2.6747   -6.1134    0.0000 N   0  0
    3.1332   -7.5416    0.0000 N   0  0
    4.7901  -10.0813    0.0000 C   0  0
    5.5735  -11.3605    0.0000 C   0  0
  1  2  1  0
  2  3  1  0
  3  4  2  0
  3  5  1  0
  5  6  2  0
  6  7  1  0
  7  8  2  0
  8  9  1  0
  9 10  2  0
 10 11  1  0
 11 12  1  0
 12 13  1  0
 13 14  2  0
 13 15  1  0
 16 15  1  6
 16 17  1  0
 17 18  2  0
 18 19  1  0
 19 20  2  0
 20 21  1  0
 21 22  2  0
 22 17  1  0
 22 23  1  0
 23 24  1  6
 24 25  2  0
 25 26  1  0
 26 27  1  0
 27 28  1  0
 26 29  2  0
 29 30  1  0
 30 31  1  0
 29 32  1  0
 32 33  1  0
 33 34  1  0
 32 35  2  0
 35 24  1  0
 23 36  1  0
 36 37  1  6
 37 38  2  0
 37 39  1  0
 39 40  1  0
 41 40  1  1
 41 36  1  0
 41 16  1  0
 20 42  1  0
 42 43  1  0
 43 44  1  0
 44 19  1  0
 11 45  1  0
 45 46  2  0
 46  9  1  0
  8 47  1  0
 47 48  2  0
 48  5  1  0
M  END
> <assay_chembl_id>
CHEMBL4819325

> <assay_description>
Antiproliferative activity against human LNCaP cells

> <document_journal>
Eur J Med Chem

> <molecule_chembl_id>
CHEMBL4438840

> <standard_value>
19.6

> <IC50_uM>
0.0196

> <Activity>
Yes

> <Canonical_Smiles>
COC(=O)c1ccc(-c2cn(CC(=O)O[C@H]3c4cc5c(cc4[C@@H](c4cc(OC)c(OC)c(OC)c4)[C@H]4C(=O)OC[C@@H]43)OCO5)nn2)cc1

$$$$

  SciTegic03142313312D

 30 33  0  0  1  0            999 V2000
    4.2566    0.5871    0.0000 C   0  0
    3.9511   -0.8815    0.0000 N   0  0
    4.9531   -1.9978    0.0000 N   0  0
    4.2010   -3.2956    0.0000 C   0  0
    2.7343   -2.9815    0.0000 C   0  0
    2.5987   -1.5004    0.0000 C   0  0
    1.2990   -0.7500    0.0000 C   0  0
    1.2990    0.7500    0.0000 C   0  0
    0.0000    1.5000    0.0000 C   0  0
   -1.2990    0.7500    0.0000 C   0  0
   -2.5973    1.5031    0.0000 C   0  0
   -3.8976    0.7553    0.0000 O   0  0
   -2.5951    3.0039    0.0000 N   0  0
   -3.8933    3.7570    0.0000 C   0  0  2  0  0  0
   -5.1925    3.0070    0.0000 C   0  0
   -6.4915    3.7571    0.0000 N   0  0
   -6.4915    5.2571    0.0000 C   0  0
   -5.1924    6.0070    0.0000 C   0  0
   -3.8934    5.2570    0.0000 C   0  0  1  0  0  0
   -2.5937    6.0074    0.0000 C   0  0
   -1.2934    5.2595    0.0000 C   0  0
    0.0045    6.0115    0.0000 C   0  0
    0.0021    7.5115    0.0000 C   0  0
    1.3000    8.2636    0.0000 F   0  0
   -1.2981    8.2595    0.0000 C   0  0
   -1.3005    9.7595    0.0000 F   0  0
   -2.5960    7.5074    0.0000 C   0  0
   -1.2990   -0.7500    0.0000 C   0  0
   -2.5981   -1.5000    0.0000 F   0  0
    0.0000   -1.5000    0.0000 C   0  0
  1  2  1  0
  2  3  1  0
  3  4  2  0
  4  5  1  0
  5  6  2  0
  6  2  1  0
  6  7  1  0
  7  8  2  0
  8  9  1  0
  9 10  2  0
 10 11  1  0
 11 12  2  0
 11 13  1  0
 14 13  1  6
 14 15  1  0
 15 16  1  0
 16 17  1  0
 17 18  1  0
 18 19  1  0
 19 14  1  0
 19 20  1  1
 20 21  2  0
 21 22  1  0
 22 23  2  0
 23 24  1  0
 23 25  1  0
 25 26  1  0
 25 27  2  0
 27 20  1  0
 10 28  1  0
 28 29  1  0
 28 30  2  0
 30  7  1  0
M  END
> <assay_chembl_id>
CHEMBL4830070

> <assay_description>
Antiproliferative activity against human LNCaP cells assessed as inhibition of cell growth incubated for 72 hrs by SRB method

> <document_journal>
J Med Chem

> <molecule_chembl_id>
CHEMBL4556790

> <standard_value>
610

> <IC50_uM>
0.61

> <Activity>
Yes

> <RemovedSalts>
HCl

> <Canonical_Smiles>
Cl.Cn1nccc1-c1ccc(C(=O)N[C@@H]2CNCC[C@H]2c2ccc(F)c(F)c2)c(F)c1

$$$$

  SciTegic03142313312D

 25 28  0  0  1  0            999 V2000
    6.4983   -0.7414    0.0000 C   0  0
    5.2003   -1.4932    0.0000 C   0  0
    3.8990   -0.7455    0.0000 C   0  0
    2.6003   -1.4977    0.0000 C   0  0
    1.2990   -0.7500    0.0000 C   0  0  2  0  0  0
    1.2990    0.7500    0.0000 C   0  0
    0.0000    1.5000    0.0000 C   0  0
    0.0000    3.0000    0.0000 C   0  0
   -1.2991    3.7500    0.0000 C   0  0
   -1.2991    5.2500    0.0000 O   0  0
   -2.5981    3.0000    0.0000 C   0  0
   -2.5981    1.5000    0.0000 C   0  0
   -1.2990    0.7500    0.0000 C   0  0  1  0  0  0
   -2.5981    0.0000    0.0000 C   0  0
   -1.2990   -0.7500    0.0000 C   0  0  1  0  0  0
   -2.5981   -1.5000    0.0000 C   0  0
   -2.5981   -3.0000    0.0000 C   0  0
   -1.2990   -3.7500    0.0000 C   0  0  2  0  0  0
   -2.5202   -4.6211    0.0000 C   0  0
   -1.0139   -5.2166    0.0000 C   0  0  1  0  0  0
   -2.0309   -6.3193    0.0000 O   0  0
    0.4768   -5.3829    0.0000 C   0  0
    1.0957   -4.0166    0.0000 C   0  0
    0.0000   -3.0000    0.0000 C   0  0  1  0  0  0
    0.0000   -1.5000    0.0000 C   0  0  2  0  0  0
  1  2  2  0
  2  3  1  0
  3  4  2  0
  5  4  1  1
  5  6  1  0
  6  7  1  0
  7  8  2  0
  8  9  1  0
  9 10  2  0
  9 11  1  0
 11 12  1  0
 12 13  1  0
 13  7  1  0
 13 14  1  6
 13 15  1  0
 15 16  1  6
 16 17  1  0
 17 18  1  0
 18 19  1  6
 18 20  1  0
 20 21  1  6
 20 22  1  0
 22 23  1  0
 24 23  1  6
 24 18  1  0
 25 24  1  1
 25  5  1  0
 25 15  1  0
M  END
> <assay_chembl_id>
CHEMBL4837997

> <assay_description>
Antiproliferative activity against androgen-sensitive human LNCaP cells assessed as inhibition of cell growth incubated for 48 hrs by MTT assay

> <document_journal>
Eur J Med Chem

> <molecule_chembl_id>
CHEMBL4865990

> <standard_value>
28800

> <IC50_uM>
28.8

> <Activity>
No

> <Canonical_Smiles>
C=C/C=C/[C@@H]1CC2=CC(=O)CC[C@]2(C)[C@H]2CC[C@]3(C)[C@@H](O)CC[C@H]3[C@H]12

$$$$

  SciTegic03142313312D

 25 28  0  0  1  0            999 V2000
    6.4983   -0.7414    0.0000 C   0  0
    5.2003   -1.4932    0.0000 C   0  0
    3.8990   -0.7455    0.0000 C   0  0
    2.6003   -1.4977    0.0000 C   0  0
    1.2990   -0.7500    0.0000 C   0  0  2  0  0  0
    1.2990    0.7500    0.0000 C   0  0
    0.0000    1.5000    0.0000 C   0  0
    0.0000    3.0000    0.0000 C   0  0
   -1.2991    3.7500    0.0000 C   0  0
   -1.2991    5.2500    0.0000 O   0  0
   -2.5981    3.0000    0.0000 C   0  0
   -2.5981    1.5000    0.0000 C   0  0
   -1.2990    0.7500    0.0000 C   0  0  1  0  0  0
   -2.5981    0.0000    0.0000 C   0  0
   -1.2990   -0.7500    0.0000 C   0  0  1  0  0  0
   -2.5981   -1.5000    0.0000 C   0  0
   -2.5981   -3.0000    0.0000 C   0  0
   -1.2990   -3.7500    0.0000 C   0  0  2  0  0  0
   -2.5202   -4.6211    0.0000 C   0  0
   -1.0139   -5.2166    0.0000 C   0  0
   -2.0309   -6.3193    0.0000 O   0  0
    0.4768   -5.3829    0.0000 C   0  0
    1.0957   -4.0166    0.0000 C   0  0
    0.0000   -3.0000    0.0000 C   0  0  1  0  0  0
    0.0000   -1.5000    0.0000 C   0  0  2  0  0  0
  1  2  2  0
  2  3  1  0
  3  4  2  0
  5  4  1  1
  5  6  1  0
  6  7  1  0
  7  8  2  0
  8  9  1  0
  9 10  2  0
  9 11  1  0
 11 12  1  0
 12 13  1  0
 13  7  1  0
 13 14  1  6
 13 15  1  0
 15 16  1  6
 16 17  1  0
 17 18  1  0
 18 19  1  6
 18 20  1  0
 20 21  2  0
 20 22  1  0
 22 23  1  0
 24 23  1  6
 24 18  1  0
 25 24  1  1
 25  5  1  0
 25 15  1  0
M  END
> <assay_chembl_id>
CHEMBL4837997

> <assay_description>
Antiproliferative activity against androgen-sensitive human LNCaP cells assessed as inhibition of cell growth incubated for 48 hrs by MTT assay

> <document_journal>
Eur J Med Chem

> <molecule_chembl_id>
CHEMBL4849840

> <standard_value>
33500

> <IC50_uM>
33.5

> <Activity>
No

> <Canonical_Smiles>
C=C/C=C/[C@@H]1CC2=CC(=O)CC[C@]2(C)[C@H]2CC[C@]3(C)C(=O)CC[C@H]3[C@H]12

$$$$

  SciTegic03142313312D

 48 55  0  0  1  0            999 V2000
    2.6640   -0.1280    0.0000 C   0  0
    1.2990   -0.7500    0.0000 C   0  0  2  0  0  0
    1.2990    0.7500    0.0000 C   0  0
    0.0000    1.5000    0.0000 C   0  0
   -1.2990    0.7500    0.0000 C   0  0  1  0  0  0
   -1.2990   -0.7500    0.0000 C   0  0  1  0  0  0
   -2.5981   -1.5000    0.0000 C   0  0  2  0  0  0
   -2.5950   -3.0008    0.0000 C   0  0
   -1.2942   -3.7494    0.0000 C   0  0
   -1.2911   -5.2502    0.0000 C   0  0
    0.0098   -5.9988    0.0000 C   0  0
    0.0129   -7.4996    0.0000 C   0  0
    1.3137   -8.2482    0.0000 C   0  0
    1.3168   -9.7490    0.0000 C   0  0  2  0  0  0
    0.0177  -10.4991    0.0000 C   0  0
    0.0178  -11.9991    0.0000 C   0  0
   -1.2812  -12.7492    0.0000 C   0  0
   -1.2812  -14.2492    0.0000 C   0  0
   -2.5802  -14.9992    0.0000 O   0  0
    0.0179  -14.9991    0.0000 C   0  0
    1.3169  -14.2491    0.0000 C   0  0
    1.3168  -12.7491    0.0000 C   0  0  1  0  0  0
    2.6159  -13.4990    0.0000 C   0  0
    2.6158  -11.9990    0.0000 C   0  0  1  0  0  0
    3.9149  -12.7490    0.0000 C   0  0
    5.2139  -11.9990    0.0000 C   0  0
    5.2139  -10.4990    0.0000 C   0  0  2  0  0  0
    6.5788  -11.1210    0.0000 C   0  0
    6.3414   -9.5187    0.0000 C   0  0  2  0  0  0
    7.8049   -9.8480    0.0000 O   0  0
    5.7401   -8.1445    0.0000 C   0  0
    4.2473   -8.2919    0.0000 C   0  0
    3.9148   -9.7490    0.0000 C   0  0  1  0  0  0
    2.6158  -10.4990    0.0000 C   0  0  2  0  0  0
   -3.8971   -0.7500    0.0000 C   0  0
   -3.8971    0.7500    0.0000 C   0  0
   -5.1962    1.5000    0.0000 C   0  0
   -5.1962    3.0000    0.0000 C   0  0
   -6.4952    3.7500    0.0000 O   0  0
   -3.8971    3.7500    0.0000 C   0  0
   -2.5981    3.0000    0.0000 C   0  0
   -2.5981    1.5000    0.0000 C   0  0  2  0  0  0
   -1.2990    2.2500    0.0000 C   0  0
    0.0000   -1.5000    0.0000 C   0  0  2  0  0  0
    0.3326   -2.9571    0.0000 C   0  0
    1.8253   -3.1044    0.0000 C   0  0
    2.4266   -1.7302    0.0000 C   0  0  1  0  0  0
    3.8900   -1.4008    0.0000 O   0  0
  2  1  1  1
  2  3  1  0
  3  4  1  0
  5  4  1  1
  6  5  1  6
  6  7  1  0
  7  8  1  6
  8  9  2  0
  9 10  1  0
 10 11  2  0
 11 12  1  0
 12 13  2  0
 14 13  1  1
 14 15  1  0
 15 16  1  0
 16 17  2  0
 17 18  1  0
 18 19  2  0
 18 20  1  0
 20 21  1  0
 21 22  1  0
 22 16  1  0
 22 23  1  6
 22 24  1  0
 24 25  1  6
 25 26  1  0
 26 27  1  0
 27 28  1  6
 27 29  1  0
 29 30  1  1
 29 31  1  0
 31 32  1  0
 33 32  1  6
 33 27  1  0
 34 33  1  1
 34 14  1  0
 34 24  1  0
  7 35  1  0
 35 36  1  0
 36 37  2  0
 37 38  1  0
 38 39  2  0
 38 40  1  0
 40 41  1  0
 41 42  1  0
 42 36  1  0
 42  5  1  0
 42 43  1  1
  6 44  1  0
 44  2  1  0
 44 45  1  1
 45 46  1  0
 46 47  1  0
 47  2  1  0
 47 48  1  6
M  END
> <assay_chembl_id>
CHEMBL4837997

> <assay_description>
Antiproliferative activity against androgen-sensitive human LNCaP cells assessed as inhibition of cell growth incubated for 48 hrs by MTT assay

> <document_journal>
Eur J Med Chem

> <molecule_chembl_id>
CHEMBL4864434

> <standard_value>
37100

> <IC50_uM>
37.1

> <Activity>
No

> <Canonical_Smiles>
C[C@]12CC[C@H]3[C@@H]([C@H](/C=C/C=C/C=C/[C@@H]4CC5=CC(=O)CC[C@]5(C)[C@H]5CC[C@]6(C)[C@H](O)CC[C@H]6[C@H]45)CC4=CC(=O)CC[C@@]43C)[C@@H]1CC[C@H]2O

$$$$

  SciTegic03142313312D

 48 55  0  0  1  0            999 V2000
    2.5981    0.0000    0.0000 C   0  0
    1.2990   -0.7500    0.0000 C   0  0  2  0  0  0
    1.2990    0.7500    0.0000 C   0  0
    0.0000    1.5000    0.0000 C   0  0
   -1.2990    0.7500    0.0000 C   0  0
   -2.5981    1.5000    0.0000 O   0  0
   -1.2990   -0.7500    0.0000 C   0  0
    0.0000   -1.5000    0.0000 C   0  0
    0.0000   -3.0000    0.0000 C   0  0
    1.2990   -3.7500    0.0000 C   0  0  1  0  0  0
    1.2960   -5.2508    0.0000 C   0  0
   -0.0049   -5.9994    0.0000 C   0  0
   -0.0079   -7.5002    0.0000 C   0  0
   -1.3088   -8.2488    0.0000 C   0  0
   -1.3118   -9.7496    0.0000 C   0  0
   -2.6127  -10.4982    0.0000 C   0  0
   -2.6157  -11.9990    0.0000 C   0  0  2  0  0  0
   -1.3167  -12.7491    0.0000 C   0  0
   -1.3167  -14.2491    0.0000 C   0  0
   -0.0177  -14.9992    0.0000 C   0  0
   -0.0178  -16.4992    0.0000 C   0  0
    1.2813  -17.2492    0.0000 O   0  0
   -1.3168  -17.2491    0.0000 C   0  0
   -2.6158  -16.4991    0.0000 C   0  0
   -2.6158  -14.9991    0.0000 C   0  0  1  0  0  0
   -3.9148  -15.7490    0.0000 C   0  0
   -3.9148  -14.2490    0.0000 C   0  0  1  0  0  0
   -5.2139  -14.9990    0.0000 C   0  0
   -6.5129  -14.2490    0.0000 C   0  0
   -6.5129  -12.7490    0.0000 C   0  0  2  0  0  0
   -7.8778  -13.3710    0.0000 C   0  0
   -7.6404  -11.7688    0.0000 C   0  0
   -9.1038  -12.0981    0.0000 O   0  0
   -7.0391  -10.3946    0.0000 C   0  0
   -5.5463  -10.5419    0.0000 C   0  0
   -5.2138  -11.9990    0.0000 C   0  0  1  0  0  0
   -3.9148  -12.7490    0.0000 C   0  0  2  0  0  0
    2.5981   -3.0000    0.0000 C   0  0  2  0  0  0
    2.5981   -1.5000    0.0000 C   0  0  2  0  0  0
    3.8971   -0.7500    0.0000 C   0  0
    5.1962   -1.5000    0.0000 C   0  0
    5.1962   -3.0000    0.0000 C   0  0  2  0  0  0
    6.5611   -2.3779    0.0000 C   0  0
    6.3238   -3.9802    0.0000 C   0  0
    7.7872   -3.6508    0.0000 O   0  0
    5.7224   -5.3544    0.0000 C   0  0
    4.2297   -5.2071    0.0000 C   0  0
    3.8971   -3.7500    0.0000 C   0  0  1  0  0  0
  2  1  1  1
  2  3  1  0
  3  4  1  0
  4  5  1  0
  5  6  2  0
  5  7  1  0
  7  8  2  0
  8  2  1  0
  8  9  1  0
  9 10  1  0
 10 11  1  6
 11 12  2  0
 12 13  1  0
 13 14  2  0
 14 15  1  0
 15 16  2  0
 17 16  1  6
 17 18  1  0
 18 19  1  0
 19 20  2  0
 20 21  1  0
 21 22  2  0
 21 23  1  0
 23 24  1  0
 24 25  1  0
 25 19  1  0
 25 26  1  1
 25 27  1  0
 27 28  1  1
 28 29  1  0
 29 30  1  0
 30 31  1  1
 30 32  1  0
 32 33  2  0
 32 34  1  0
 34 35  1  0
 36 35  1  1
 36 30  1  0
 37 36  1  6
 37 17  1  0
 37 27  1  0
 38 10  1  6
 38 39  1  0
 39  2  1  0
 39 40  1  1
 40 41  1  0
 41 42  1  0
 42 43  1  1
 42 44  1  0
 44 45  2  0
 44 46  1  0
 46 47  1  0
 48 47  1  1
 48 38  1  0
 48 42  1  0
M  END
> <assay_chembl_id>
CHEMBL4837997

> <assay_description>
Antiproliferative activity against androgen-sensitive human LNCaP cells assessed as inhibition of cell growth incubated for 48 hrs by MTT assay

> <document_journal>
Eur J Med Chem

> <molecule_chembl_id>
CHEMBL4871524

> <standard_value>
72700

> <IC50_uM>
72.7

> <Activity>
No

> <Canonical_Smiles>
C[C@]12CCC(=O)C=C1C[C@@H](/C=C/C=C/C=C/[C@@H]1CC3=CC(=O)CC[C@]3(C)[C@H]3CC[C@]4(C)C(=O)CC[C@H]4[C@H]13)[C@@H]1[C@@H]2CC[C@]2(C)C(=O)CC[C@@H]12

$$$$

  SciTegic03142313312D

 43 48  0  0  1  0            999 V2000
    2.4750    6.4159    0.0000 C   0  0
    1.1689    5.6782    0.0000 C   0  0
   -0.1227    6.4410    0.0000 O   0  0
    1.1551    4.1775    0.0000 O   0  0
    2.4474    3.4143    0.0000 C   0  0
    2.4328    1.9143    0.0000 C   0  0  2  0  0  0
    1.1965    2.5923    0.0000 C   0  0
    0.0000    1.9143    0.0000 C   0  0
    0.0000    0.4786    0.0000 C   0  0  1  0  0  0
    1.1965    0.0000    0.0000 C   0  0  1  0  0  0
    1.1965   -1.7149    0.0000 C   0  0
    0.0000   -2.4328    0.0000 C   0  0  1  0  0  0
   -1.2762   -3.1507    0.0000 O   0  0
   -1.2762   -1.7149    0.0000 C   0  0  2  0  0  0
   -2.5126   -2.4328    0.0000 C   0  0  1  0  0  0
   -2.4894   -3.9341    0.0000 O   0  0
   -1.1786   -4.6650    0.0000 C   0  0
    0.1089   -3.8953    0.0000 C   0  0
   -1.1552   -6.1648    0.0000 O   0  0
   -3.7888   -1.7149    0.0000 C   0  0
   -3.7888    0.0000    0.0000 C   0  0
   -2.5126    0.4786    0.0000 C   0  0
   -2.5047    1.9786    0.0000 O   0  0
   -1.2762    0.0000    0.0000 C   0  0  2  0  0  0
   -1.2683    1.5000    0.0000 C   0  0
    2.4328    0.4786    0.0000 C   0  0  1  0  0  0
    2.7082   -0.9959    0.0000 O   0  0
    4.9853    0.4786    0.0000 C   0  0
    4.9853    1.9143    0.0000 C   0  0
    3.7489    2.5923    0.0000 C   0  0  2  0  0  0
    2.8757    3.0797    0.0000 O   0  0
    5.0579    3.2788    0.0000 C   0  0  1  0  0  0
    6.3663    4.0122    0.0000 C   0  0
    5.0771    4.7787    0.0000 O   0  0
    6.3481    2.5121    0.0000 C   0  0  3  0  0  0
    6.3293    1.0123    0.0000 C   0  0
    7.6189    0.2461    0.0000 C   0  0
    7.6001   -1.2538    0.0000 C   0  0
    8.9272    0.9797    0.0000 C   0  0
   10.2167    0.2135    0.0000 C   0  0
    8.9460    2.4796    0.0000 C   0  0
   10.2543    3.2133    0.0000 O   0  0
    7.6564    3.2458    0.0000 O   0  0
  1  2  1  0
  2  3  2  0
  2  4  1  0
  4  5  1  0
  6  5  1  1
  6  7  1  0
  7  8  1  0
  9  8  1  1
  9 10  1  0
 10 11  1  6
 12 11  1  1
 12 13  1  0
 14 13  1  1
 14 12  1  0
 14 15  1  0
 15 16  1  1
 16 17  1  0
 17 18  1  0
 17 19  2  0
 15 20  1  0
 20 21  2  0
 21 22  1  0
 22 23  2  0
 22 24  1  0
 24  9  1  0
 24 14  1  0
 24 25  1  1
 10 26  1  0
 26  6  1  0
 26 27  1  6
 26 28  1  0
 28 29  1  0
 29 30  1  0
 30  6  1  0
 30 31  1  1
 30 32  1  0
 32 33  1  6
 32 34  1  0
 32 35  1  0
 35 36  1  4
 36 37  1  0
 37 38  1  0
 37 39  2  0
 39 40  1  0
 39 41  1  0
 41 42  2  0
 41 43  1  0
 43 35  1  0
M  END
> <assay_chembl_id>
CHEMBL4842238

> <assay_description>
Antiproliferative activity against human LNCaP cells assessed as inhibition of cell proliferation incubated for 72 hrs by MTT assay

> <document_journal>
J Nat Prod

> <molecule_chembl_id>
CHEMBL4862877

> <standard_value>
920

> <IC50_uM>
0.92

> <Activity>
Yes

> <Canonical_Smiles>
CC(=O)OC[C@]12CC[C@H]3[C@@H](C[C@H]4O[C@]45[C@@H](OC(C)=O)C=CC(=O)[C@]35C)[C@]1(O)CC[C@@]2(O)[C@@](C)(O)C1CC(C)=C(C)C(=O)O1

$$$$

  SciTegic03142313312D

 42 46  0  0  1  0            999 V2000
    5.3417    1.2261    0.0000 C   0  0
    4.0974    2.0638    0.0000 C   0  0
    4.2013    3.5602    0.0000 O   0  0
    2.7493    1.4044    0.0000 O   0  0
    2.6454   -0.0929    0.0000 C   0  0
    1.2990   -0.7500    0.0000 C   0  0  2  0  0  0
    1.2990    0.7500    0.0000 C   0  0
    0.0000    1.5000    0.0000 C   0  0
   -1.2990    0.7500    0.0000 C   0  0  1  0  0  0
   -1.2990   -0.7500    0.0000 C   0  0  1  0  0  0
   -2.5981   -1.5000    0.0000 C   0  0
   -3.8971   -0.7500    0.0000 C   0  0
   -3.8971    0.7500    0.0000 C   0  0
   -5.1962    1.5000    0.0000 C   0  0  1  0  0  0
   -6.4944    0.7469    0.0000 O   0  0
   -6.4922   -0.7539    0.0000 C   0  0
   -5.1919   -1.5017    0.0000 C   0  0
   -7.7897   -1.5066    0.0000 O   0  0
   -5.1962    3.0000    0.0000 C   0  0
   -3.8971    3.7500    0.0000 C   0  0
   -2.5981    3.0000    0.0000 C   0  0
   -1.2991    3.7500    0.0000 O   0  0
   -2.5981    1.5000    0.0000 C   0  0  2  0  0  0
   -1.2990    2.2500    0.0000 C   0  0
    0.0000   -1.5000    0.0000 C   0  0  1  0  0  0
   -1.2146   -2.3802    0.0000 O   0  0
    0.3061   -2.9572    0.0000 C   0  0
    1.7979   -3.1140    0.0000 C   0  0
    2.4080   -1.7437    0.0000 C   0  0  2  0  0  0
    2.7008   -0.7875    0.0000 O   0  0
    3.3870   -2.8636    0.0000 C   0  0  1  0  0  0
    4.3923   -3.9769    0.0000 C   0  0
    4.8538   -2.5499    0.0000 O   0  0
    2.9255   -4.2918    0.0000 C   0  0  3  0  0  0
    3.9310   -5.4049    0.0000 C   0  0
    3.4698   -6.8322    0.0000 C   0  0
    4.4753   -7.9453    0.0000 C   0  0
    2.0030   -7.1464    0.0000 C   0  0
    1.5418   -8.5738    0.0000 C   0  0
    0.9976   -6.0333    0.0000 C   0  0
   -0.4692   -6.3476    0.0000 O   0  0
    1.4588   -4.6060    0.0000 O   0  0
  1  2  1  0
  2  3  2  0
  2  4  1  0
  4  5  1  0
  6  5  1  1
  6  7  1  0
  7  8  1  0
  9  8  1  1
  9 10  1  0
 10 11  1  6
 11 12  1  0
 12 13  2  0
 13 14  1  0
 14 15  1  1
 15 16  1  0
 16 17  1  0
 16 18  2  0
 14 19  1  0
 19 20  2  0
 20 21  1  0
 21 22  2  0
 21 23  1  0
 23 13  1  0
 23  9  1  0
 23 24  1  1
 10 25  1  0
 25  6  1  0
 25 26  1  6
 25 27  1  0
 27 28  1  0
 28 29  1  0
 29  6  1  0
 29 30  1  1
 29 31  1  0
 31 32  1  6
 31 33  1  0
 31 34  1  0
 34 35  1  4
 35 36  1  0
 36 37  1  0
 36 38  2  0
 38 39  1  0
 38 40  1  0
 40 41  2  0
 40 42  1  0
 42 34  1  0
M  END
> <assay_chembl_id>
CHEMBL4842238

> <assay_description>
Antiproliferative activity against human LNCaP cells assessed as inhibition of cell proliferation incubated for 72 hrs by MTT assay

> <document_journal>
J Nat Prod

> <molecule_chembl_id>
CHEMBL4850712

> <standard_value>
680

> <IC50_uM>
0.68

> <Activity>
Yes

> <Canonical_Smiles>
CC(=O)OC[C@]12CC[C@H]3[C@@H](CC=C4[C@@H](OC(C)=O)C=CC(=O)[C@@]43C)[C@]1(O)CC[C@@]2(O)[C@@](C)(O)C1CC(C)=C(C)C(=O)O1

$$$$

  SciTegic03142313312D

 39 43  0  0  1  0            999 V2000
    5.3417    1.2261    0.0000 C   0  0
    4.0974    2.0638    0.0000 C   0  0
    4.2013    3.5602    0.0000 O   0  0
    2.7493    1.4044    0.0000 O   0  0
    2.6454   -0.0929    0.0000 C   0  0
    1.2990   -0.7500    0.0000 C   0  0  2  0  0  0
    1.2990    0.7500    0.0000 C   0  0
    0.0000    1.5000    0.0000 C   0  0
   -1.2990    0.7500    0.0000 C   0  0  1  0  0  0
   -1.2990   -0.7500    0.0000 C   0  0  1  0  0  0
   -2.5981   -1.5000    0.0000 C   0  0
   -3.8971   -0.7500    0.0000 C   0  0
   -3.8971    0.7500    0.0000 C   0  0
   -5.1962    1.5000    0.0000 C   0  0  1  0  0  0
   -6.4952    0.7500    0.0000 O   0  0
   -5.1962    3.0000    0.0000 C   0  0
   -3.8971    3.7500    0.0000 C   0  0
   -2.5981    3.0000    0.0000 C   0  0
   -1.2991    3.7500    0.0000 O   0  0
   -2.5981    1.5000    0.0000 C   0  0  2  0  0  0
   -1.2990    2.2500    0.0000 C   0  0
    0.0000   -1.5000    0.0000 C   0  0  1  0  0  0
   -1.2146   -2.3802    0.0000 O   0  0
    0.3061   -2.9572    0.0000 C   0  0
    1.7979   -3.1140    0.0000 C   0  0
    2.4080   -1.7437    0.0000 C   0  0  2  0  0  0
    2.7008   -0.7875    0.0000 O   0  0
    3.3870   -2.8636    0.0000 C   0  0  1  0  0  0
    4.3923   -3.9769    0.0000 C   0  0
    4.8538   -2.5499    0.0000 O   0  0
    2.9255   -4.2918    0.0000 C   0  0  3  0  0  0
    3.9310   -5.4049    0.0000 C   0  0
    3.4698   -6.8322    0.0000 C   0  0
    4.4753   -7.9453    0.0000 C   0  0
    2.0030   -7.1464    0.0000 C   0  0
    1.5418   -8.5738    0.0000 C   0  0
    0.9976   -6.0333    0.0000 C   0  0
   -0.4692   -6.3476    0.0000 O   0  0
    1.4588   -4.6060    0.0000 O   0  0
  1  2  1  0
  2  3  2  0
  2  4  1  0
  4  5  1  0
  6  5  1  1
  6  7  1  0
  7  8  1  0
  9  8  1  1
  9 10  1  0
 10 11  1  6
 11 12  1  0
 12 13  2  0
 13 14  1  0
 14 15  1  1
 14 16  1  0
 16 17  2  0
 17 18  1  0
 18 19  2  0
 18 20  1  0
 20 13  1  0
 20  9  1  0
 20 21  1  1
 10 22  1  0
 22  6  1  0
 22 23  1  6
 22 24  1  0
 24 25  1  0
 25 26  1  0
 26  6  1  0
 26 27  1  1
 26 28  1  0
 28 29  1  6
 28 30  1  0
 28 31  1  0
 31 32  1  4
 32 33  1  0
 33 34  1  0
 33 35  2  0
 35 36  1  0
 35 37  1  0
 37 38  2  0
 37 39  1  0
 39 31  1  0
M  END
> <assay_chembl_id>
CHEMBL4842238

> <assay_description>
Antiproliferative activity against human LNCaP cells assessed as inhibition of cell proliferation incubated for 72 hrs by MTT assay

> <document_journal>
J Nat Prod

> <molecule_chembl_id>
CHEMBL4864487

> <standard_value>
350

> <IC50_uM>
0.35

> <Activity>
Yes

> <Canonical_Smiles>
CC(=O)OC[C@]12CC[C@H]3[C@@H](CC=C4[C@@H](O)C=CC(=O)[C@@]43C)[C@]1(O)CC[C@@]2(O)[C@@](C)(O)C1CC(C)=C(C)C(=O)O1

$$$$

  SciTegic03142313312D

 40 45  0  0  1  0            999 V2000
    2.6787    6.4291    0.0000 C   0  0
    1.3341    5.7642    0.0000 C   0  0
    0.0862    6.5966    0.0000 O   0  0
    1.2380    4.2664    0.0000 O   0  0
    2.4865    3.4336    0.0000 C   0  0
    2.3900    1.9400    0.0000 C   0  0  2  0  0  0
    1.0300    2.6800    0.0000 C   0  0
   -0.2800    1.9100    0.0000 C   0  0
   -0.2800    0.3200    0.0000 C   0  0  1  0  0  0
    1.0700   -0.4400    0.0000 C   0  0  1  0  0  0
    1.0700   -1.9900    0.0000 C   0  0
   -0.2400   -2.7600    0.0000 C   0  0  2  0  0  0
   -0.2351   -4.2600    0.0000 O   0  0
   -1.5700   -1.9900    0.0000 C   0  0  2  0  0  0
   -1.5700   -3.6700    0.0000 O   0  0
   -2.8700   -2.7600    0.0000 C   0  0  1  0  0  0
   -4.2300   -1.9900    0.0000 C   0  0
   -4.2300   -0.4400    0.0000 C   0  0
   -2.9200    0.3200    0.0000 C   0  0
   -2.9297    1.8200    0.0000 O   0  0
   -1.5700   -0.4400    0.0000 C   0  0  2  0  0  0
   -1.5847    1.0599    0.0000 C   0  0
    2.3900    0.3400    0.0000 C   0  0  1  0  0  0
    2.5610   -1.1502    0.0000 O   0  0
    3.8500   -0.1200    0.0000 C   0  0
    4.7500    1.0900    0.0000 C   0  0
    3.8000    2.3700    0.0000 C   0  0  2  0  0  0
    3.1213    3.1044    0.0000 O   0  0
    5.2603    2.6483    0.0000 C   0  0  1  0  0  0
    6.7287    2.9547    0.0000 C   0  0
    5.7294    4.0730    0.0000 O   0  0
    6.2605    1.5294    0.0000 C   0  0  3  0  0  0
    5.7919    0.1044    0.0000 C   0  0
    6.7916   -1.0139    0.0000 C   0  0
    6.3229   -2.4388    0.0000 C   0  0
    8.2599   -0.7073    0.0000 C   0  0
    9.2596   -1.8256    0.0000 C   0  0
    8.7285    0.7177    0.0000 C   0  0
   10.1969    1.0243    0.0000 O   0  0
    7.7289    1.8360    0.0000 O   0  0
  1  2  1  0
  2  3  2  0
  2  4  1  0
  4  5  1  0
  6  5  1  1
  6  7  1  0
  7  8  1  0
  9  8  1  1
  9 10  1  0
 10 11  1  6
 11 12  1  0
 12 13  1  6
 12 14  1  0
 14 15  1  1
 16 15  1  1
 16 14  1  0
 16 17  1  0
 17 18  2  0
 18 19  1  0
 19 20  2  0
 19 21  1  0
 21  9  1  0
 21 14  1  0
 21 22  1  1
 10 23  1  0
 23  6  1  0
 23 24  1  6
 23 25  1  0
 25 26  1  0
 26 27  1  0
 27  6  1  0
 27 28  1  1
 27 29  1  0
 29 30  1  6
 29 31  1  0
 29 32  1  0
 32 33  1  4
 33 34  1  0
 34 35  1  0
 34 36  2  0
 36 37  1  0
 36 38  1  0
 38 39  2  0
 38 40  1  0
 40 32  1  0
M  END
> <assay_chembl_id>
CHEMBL4842238

> <assay_description>
Antiproliferative activity against human LNCaP cells assessed as inhibition of cell proliferation incubated for 72 hrs by MTT assay

> <document_journal>
J Nat Prod

> <molecule_chembl_id>
CHEMBL4876149

> <standard_value>
530

> <IC50_uM>
0.53

> <Activity>
Yes

> <Canonical_Smiles>
CC(=O)OC[C@]12CC[C@H]3[C@@H](C[C@H](O)[C@]45O[C@H]4C=CC(=O)[C@]35C)[C@]1(O)CC[C@@]2(O)[C@@](C)(O)C1CC(C)=C(C)C(=O)O1

$$$$

  SciTegic03142313312D

 57 64  0  0  1  0            999 V2000
    6.0947  -15.7440    0.0000 C   0  0
    5.3556  -17.0493    0.0000 C   0  0
    6.1101  -18.3457    0.0000 C   0  0
    4.3017  -16.0332    0.0000 C   0  0  2  0  0  0
    4.3148  -14.5325    0.0000 N   0  0
    5.6206  -13.7926    0.0000 C   0  0
    6.9132  -14.5535    0.0000 O   0  0
    5.6337  -12.2918    0.0000 C   0  0
    6.9377  -11.5505    0.0000 C   0  0
    6.9477  -10.0506    0.0000 C   0  0
    5.6537   -9.2918    0.0000 C   0  0
    5.6613   -7.7911    0.0000 N   0  0
    6.9642   -7.0477    0.0000 C   0  0
    6.9718   -5.5477    0.0000 C   0  0
    5.6766   -4.7910    0.0000 N   0  0
    5.6812   -3.2902    0.0000 C   0  0
    4.3895   -2.5380    0.0000 C   0  0
    4.0035   -1.0885    0.0000 C   0  0
    2.5987   -1.5004    0.0000 N   0  0
    1.2990   -0.7500    0.0000 C   0  0
    1.2990    0.7500    0.0000 C   0  0
    0.0000    1.5000    0.0000 C   0  0
   -1.2990    0.7500    0.0000 C   0  0
   -1.2990   -0.7500    0.0000 C   0  0
    0.0000   -1.5000    0.0000 C   0  0
   -2.7248   -1.2135    0.0000 C   0  0
   -3.1882   -2.6402    0.0000 O   0  0
   -3.6065    0.0000    0.0000 N   0  0
   -5.1072    0.0000    0.0000 C   0  0  3  0  0  0
   -5.7538    1.3554    0.0000 C   0  0
   -7.2496    1.4682    0.0000 C   0  0
   -8.0952    0.2293    0.0000 C   0  0
   -9.5909    0.3422    0.0000 O   0  0
   -7.4450   -1.1225    0.0000 N   0  0
   -5.9493   -1.2353    0.0000 C   0  0
   -5.2987   -2.5869    0.0000 O   0  0
   -2.7248    1.2135    0.0000 C   0  0
   -3.1882    2.6401    0.0000 O   0  0
    2.9400   -2.9240    0.0000 C   0  0
    4.3737   -5.5345    0.0000 C   0  0
    4.3661   -7.0345    0.0000 C   0  0
    4.3497  -10.0332    0.0000 C   0  0
    4.3397  -11.5332    0.0000 C   0  0
    3.2343  -17.0351    0.0000 C   0  0
    2.5127  -15.7201    0.0000 C   0  0
    2.4627  -18.3214    0.0000 C   0  0
    4.2879  -18.1028    0.0000 C   0  0  1  0  0  0
    4.2748  -19.5975    0.0000 O   0  0
    2.9690  -20.3373    0.0000 C   0  0
    2.9537  -21.8373    0.0000 C   0  0
    1.6471  -22.5741    0.0000 C   0  0
    0.3557  -21.8109    0.0000 C   0  0
   -0.9516  -22.5481    0.0000 C   0  0
   -2.2582  -23.2848    0.0000 N   0  0
    0.3710  -20.3110    0.0000 C   0  0
   -0.9204  -19.5478    0.0000 Cl  0  0
    1.6775  -19.5742    0.0000 C   0  0
  1  2  1  0
  2  3  1  0
  2  4  1  0
  4  5  1  1
  5  6  1  0
  6  7  2  0
  6  8  1  0
  8  9  2  0
  9 10  1  0
 10 11  2  0
 11 12  1  0
 12 13  1  0
 13 14  1  0
 14 15  1  0
 15 16  1  0
 16 17  1  0
 17 18  1  0
 18 19  1  0
 19 20  1  0
 20 21  2  0
 21 22  1  0
 22 23  2  0
 23 24  1  0
 24 25  2  0
 25 20  1  0
 24 26  1  0
 26 27  2  0
 26 28  1  0
 29 28  1  4
 29 30  1  0
 30 31  1  0
 31 32  1  0
 32 33  2  0
 32 34  1  0
 34 35  1  0
 35 29  1  0
 35 36  2  0
 28 37  1  0
 37 23  1  0
 37 38  2  0
 19 39  1  0
 39 17  1  0
 15 40  1  0
 40 41  1  0
 41 12  1  0
 11 42  1  0
 42 43  2  0
 43  8  1  0
  4 44  1  0
 44 45  1  0
 44 46  1  0
 44 47  1  0
 47  2  1  0
 47 48  1  6
 48 49  1  0
 49 50  2  0
 50 51  1  0
 51 52  2  0
 52 53  1  0
 53 54  3  0
 52 55  1  0
 55 56  1  0
 55 57  2  0
 57 49  1  0
M  END
> <assay_chembl_id>
CHEMBL4844396

> <assay_description>
Growth inhibition of human LNCaP cells assessed as cell viability measured after 4 days in presence of R1881 by WST-8 assay

> <document_journal>
J Med Chem

> <molecule_chembl_id>
CHEMBL4747369

> <standard_value>
10

> <IC50_uM>
0.01

> <Activity>
Yes

> <Canonical_Smiles>
CC1(C)[C@H](NC(=O)c2ccc(N3CCN(CC4CN(c5ccc6c(c5)C(=O)N(C5CCC(=O)NC5=O)C6=O)C4)CC3)cc2)C(C)(C)[C@H]1Oc1ccc(C#N)c(Cl)c1

$$$$

  SciTegic03142313312D

 58 65  0  0  1  0            999 V2000
   16.1974   -8.8528    0.0000 C   0  0
   16.9608  -10.1441    0.0000 C   0  0
   18.4607  -10.1360    0.0000 C   0  0
   15.5547  -10.5515    0.0000 C   0  0  2  0  0  0
   14.2601   -9.7922    0.0000 N   0  0
   14.2694   -8.2914    0.0000 C   0  0
   15.5732   -7.5499    0.0000 O   0  0
   12.9747   -7.5322    0.0000 C   0  0
   12.9819   -6.0322    0.0000 C   0  0
   11.6864   -5.2760    0.0000 C   0  0
   10.3837   -6.0198    0.0000 C   0  0
    9.0864   -5.2653    0.0000 N   0  0
    9.0912   -3.7653    0.0000 C   0  0
    7.7945   -3.0112    0.0000 C   0  0
    6.4930   -3.7570    0.0000 N   0  0
    5.1945   -3.0045    0.0000 C   0  0
    5.1969   -1.5045    0.0000 C   0  0
    3.8991   -0.7525    0.0000 C   0  0
    2.5987   -1.5004    0.0000 N   0  0
    1.2990   -0.7500    0.0000 C   0  0
    1.2990    0.7500    0.0000 C   0  0
    0.0000    1.5000    0.0000 C   0  0
   -1.2990    0.7500    0.0000 C   0  0
   -1.2990   -0.7500    0.0000 C   0  0
    0.0000   -1.5000    0.0000 C   0  0
   -2.7248   -1.2135    0.0000 C   0  0
   -3.1882   -2.6402    0.0000 O   0  0
   -3.6065    0.0000    0.0000 N   0  0
   -5.1072    0.0000    0.0000 C   0  0  3  0  0  0
   -5.7538    1.3554    0.0000 C   0  0
   -7.2496    1.4682    0.0000 C   0  0
   -8.0952    0.2293    0.0000 C   0  0
   -9.5909    0.3422    0.0000 O   0  0
   -7.4450   -1.1225    0.0000 N   0  0
   -5.9493   -1.2353    0.0000 C   0  0
   -5.2987   -2.5869    0.0000 O   0  0
   -2.7248    1.2135    0.0000 C   0  0
   -3.1882    2.6401    0.0000 O   0  0
    2.5965   -3.0004    0.0000 C   0  0
    3.8943   -3.7525    0.0000 C   0  0
    6.4884   -5.2570    0.0000 C   0  0
    7.7850   -6.0111    0.0000 C   0  0
   10.3767   -7.5198    0.0000 C   0  0
   11.6721   -8.2760    0.0000 C   0  0
   15.8914  -11.9761    0.0000 C   0  0
   14.3917  -11.9464    0.0000 C   0  0
   16.6220  -13.2862    0.0000 C   0  0
   17.3421  -11.5948    0.0000 C   0  0  1  0  0  0
   18.6314  -12.3510    0.0000 O   0  0
   18.6221  -13.8518    0.0000 C   0  0
   19.9149  -14.6126    0.0000 C   0  0
   19.9025  -16.1125    0.0000 C   0  0
   18.5974  -16.8518    0.0000 C   0  0
   18.5850  -18.3526    0.0000 C   0  0
   18.5726  -19.8525    0.0000 N   0  0
   17.3046  -16.0911    0.0000 C   0  0
   15.9994  -16.8304    0.0000 Cl  0  0
   17.3169  -14.5912    0.0000 C   0  0
  1  2  1  0
  2  3  1  0
  2  4  1  0
  4  5  1  1
  5  6  1  0
  6  7  2  0
  6  8  1  0
  8  9  2  0
  9 10  1  0
 10 11  2  0
 11 12  1  0
 12 13  1  0
 13 14  1  0
 14 15  1  0
 15 16  1  0
 16 17  1  0
 17 18  1  0
 18 19  1  0
 19 20  1  0
 20 21  2  0
 21 22  1  0
 22 23  2  0
 23 24  1  0
 24 25  2  0
 25 20  1  0
 24 26  1  0
 26 27  2  0
 26 28  1  0
 29 28  1  4
 29 30  1  0
 30 31  1  0
 31 32  1  0
 32 33  2  0
 32 34  1  0
 34 35  1  0
 35 29  1  0
 35 36  2  0
 28 37  1  0
 37 23  1  0
 37 38  2  0
 19 39  1  0
 39 40  1  0
 40 16  1  0
 15 41  1  0
 41 42  1  0
 42 12  1  0
 11 43  1  0
 43 44  2  0
 44  8  1  0
  4 45  1  0
 45 46  1  0
 45 47  1  0
 45 48  1  0
 48  2  1  0
 48 49  1  6
 49 50  1  0
 50 51  2  0
 51 52  1  0
 52 53  2  0
 53 54  1  0
 54 55  3  0
 53 56  1  0
 56 57  1  0
 56 58  2  0
 58 50  1  0
M  END
> <assay_chembl_id>
CHEMBL4844396

> <assay_description>
Growth inhibition of human LNCaP cells assessed as cell viability measured after 4 days in presence of R1881 by WST-8 assay

> <document_journal>
J Med Chem

> <molecule_chembl_id>
CHEMBL4861919

> <standard_value>
11

> <IC50_uM>
0.011

> <Activity>
Yes

> <Canonical_Smiles>
CC1(C)[C@H](NC(=O)c2ccc(N3CCN(C4CCN(c5ccc6c(c5)C(=O)N(C5CCC(=O)NC5=O)C6=O)CC4)CC3)cc2)C(C)(C)[C@H]1Oc1ccc(C#N)c(Cl)c1

$$$$

  SciTegic03142313312D

 59 66  0  0  1  0            999 V2000
    6.9056  -16.2135    0.0000 C   0  0
    6.1666  -17.5188    0.0000 C   0  0
    6.9211  -18.8152    0.0000 C   0  0
    5.1126  -16.5028    0.0000 C   0  0  2  0  0  0
    5.1256  -15.0020    0.0000 N   0  0
    6.4314  -14.2621    0.0000 C   0  0
    7.7241  -15.0230    0.0000 O   0  0
    6.4444  -12.7613    0.0000 C   0  0
    7.7484  -12.0200    0.0000 C   0  0
    7.7583  -10.5200    0.0000 C   0  0
    6.4643   -9.7613    0.0000 C   0  0
    6.4719   -8.2606    0.0000 N   0  0
    7.7747   -7.5171    0.0000 C   0  0
    7.7822   -6.0171    0.0000 C   0  0
    6.4870   -5.2605    0.0000 N   0  0
    6.4915   -3.7597    0.0000 C   0  0
    5.1945   -3.0045    0.0000 C   0  0
    5.1969   -1.5045    0.0000 C   0  0
    3.8991   -0.7525    0.0000 C   0  0
    2.5987   -1.5004    0.0000 N   0  0
    1.2990   -0.7500    0.0000 C   0  0
    1.2990    0.7500    0.0000 C   0  0
    0.0000    1.5000    0.0000 C   0  0
   -1.2990    0.7500    0.0000 C   0  0
   -1.2990   -0.7500    0.0000 C   0  0
    0.0000   -1.5000    0.0000 C   0  0
   -2.7248   -1.2135    0.0000 C   0  0
   -3.1882   -2.6402    0.0000 O   0  0
   -3.6065    0.0000    0.0000 N   0  0
   -5.1072    0.0000    0.0000 C   0  0  3  0  0  0
   -5.7538    1.3554    0.0000 C   0  0
   -7.2496    1.4682    0.0000 C   0  0
   -8.0952    0.2293    0.0000 C   0  0
   -9.5909    0.3422    0.0000 O   0  0
   -7.4450   -1.1225    0.0000 N   0  0
   -5.9493   -1.2353    0.0000 C   0  0
   -5.2987   -2.5869    0.0000 O   0  0
   -2.7248    1.2135    0.0000 C   0  0
   -3.1882    2.6401    0.0000 O   0  0
    2.5965   -3.0004    0.0000 C   0  0
    3.8943   -3.7525    0.0000 C   0  0
    5.1842   -6.0040    0.0000 C   0  0
    5.1766   -7.5040    0.0000 C   0  0
    5.1603  -10.5028    0.0000 C   0  0
    5.1504  -12.0027    0.0000 C   0  0
    4.0453  -17.5047    0.0000 C   0  0
    3.3236  -16.1898    0.0000 C   0  0
    3.2737  -18.7911    0.0000 C   0  0
    5.0989  -18.5724    0.0000 C   0  0  1  0  0  0
    5.0859  -20.0671    0.0000 O   0  0
    3.7801  -20.8070    0.0000 C   0  0
    3.7648  -22.3069    0.0000 C   0  0
    2.4583  -23.0437    0.0000 C   0  0
    1.1669  -22.2806    0.0000 C   0  0
   -0.1404  -23.0179    0.0000 C   0  0
   -1.4470  -23.7547    0.0000 N   0  0
    1.1821  -20.7807    0.0000 C   0  0
   -0.1093  -20.0176    0.0000 Cl  0  0
    2.4886  -20.0439    0.0000 C   0  0
  1  2  1  0
  2  3  1  0
  2  4  1  0
  4  5  1  1
  5  6  1  0
  6  7  2  0
  6  8  1  0
  8  9  2  0
  9 10  1  0
 10 11  2  0
 11 12  1  0
 12 13  1  0
 13 14  1  0
 14 15  1  0
 15 16  1  0
 16 17  1  0
 17 18  1  0
 18 19  1  0
 19 20  1  0
 20 21  1  0
 21 22  2  0
 22 23  1  0
 23 24  2  0
 24 25  1  0
 25 26  2  0
 26 21  1  0
 25 27  1  0
 27 28  2  0
 27 29  1  0
 30 29  1  4
 30 31  1  0
 31 32  1  0
 32 33  1  0
 33 34  2  0
 33 35  1  0
 35 36  1  0
 36 30  1  0
 36 37  2  0
 29 38  1  0
 38 24  1  0
 38 39  2  0
 20 40  1  0
 40 41  1  0
 41 17  1  0
 15 42  1  0
 42 43  1  0
 43 12  1  0
 11 44  1  0
 44 45  2  0
 45  8  1  0
  4 46  1  0
 46 47  1  0
 46 48  1  0
 46 49  1  0
 49  2  1  0
 49 50  1  6
 50 51  1  0
 51 52  2  0
 52 53  1  0
 53 54  2  0
 54 55  1  0
 55 56  3  0
 54 57  1  0
 57 58  1  0
 57 59  2  0
 59 51  1  0
M  END
> <assay_chembl_id>
CHEMBL4844396

> <assay_description>
Growth inhibition of human LNCaP cells assessed as cell viability measured after 4 days in presence of R1881 by WST-8 assay

> <document_journal>
J Med Chem

> <molecule_chembl_id>
CHEMBL4877348

> <standard_value>
5

> <IC50_uM>
0.005

> <Activity>
Yes

> <Canonical_Smiles>
CC1(C)[C@H](NC(=O)c2ccc(N3CCN(CC4CCN(c5ccc6c(c5)C(=O)N(C5CCC(=O)NC5=O)C6=O)CC4)CC3)cc2)C(C)(C)[C@H]1Oc1ccc(C#N)c(Cl)c1

$$$$

  SciTegic03142313312D

 58 65  0  0  1  0            999 V2000
   16.1974   -8.8528    0.0000 C   0  0
   16.9608  -10.1441    0.0000 C   0  0
   18.4607  -10.1360    0.0000 C   0  0
   15.5547  -10.5515    0.0000 C   0  0  2  0  0  0
   14.2601   -9.7922    0.0000 N   0  0
   14.2694   -8.2914    0.0000 C   0  0
   15.5732   -7.5499    0.0000 O   0  0
   12.9747   -7.5322    0.0000 C   0  0
   12.9819   -6.0322    0.0000 C   0  0
   11.6864   -5.2760    0.0000 C   0  0
   10.3837   -6.0198    0.0000 C   0  0
    9.0864   -5.2653    0.0000 N   0  0
    9.0912   -3.7653    0.0000 C   0  0
    7.7945   -3.0112    0.0000 C   0  0
    6.4930   -3.7570    0.0000 C   0  0
    5.1945   -3.0045    0.0000 N   0  0
    5.1969   -1.5045    0.0000 C   0  0
    3.8991   -0.7525    0.0000 C   0  0
    2.5987   -1.5004    0.0000 N   0  0
    1.2990   -0.7500    0.0000 C   0  0
    1.2990    0.7500    0.0000 C   0  0
    0.0000    1.5000    0.0000 C   0  0
   -1.2990    0.7500    0.0000 C   0  0
   -1.2990   -0.7500    0.0000 C   0  0
    0.0000   -1.5000    0.0000 C   0  0
   -2.7248   -1.2135    0.0000 C   0  0
   -3.1882   -2.6402    0.0000 O   0  0
   -3.6065    0.0000    0.0000 N   0  0
   -5.1072    0.0000    0.0000 C   0  0  3  0  0  0
   -5.7538    1.3554    0.0000 C   0  0
   -7.2496    1.4682    0.0000 C   0  0
   -8.0952    0.2293    0.0000 C   0  0
   -9.5909    0.3422    0.0000 O   0  0
   -7.4450   -1.1225    0.0000 N   0  0
   -5.9493   -1.2353    0.0000 C   0  0
   -5.2987   -2.5869    0.0000 O   0  0
   -2.7248    1.2135    0.0000 C   0  0
   -3.1882    2.6401    0.0000 O   0  0
    2.5965   -3.0004    0.0000 C   0  0
    3.8943   -3.7525    0.0000 C   0  0
    6.4884   -5.2570    0.0000 C   0  0
    7.7850   -6.0111    0.0000 C   0  0
   10.3767   -7.5198    0.0000 C   0  0
   11.6721   -8.2760    0.0000 C   0  0
   15.8914  -11.9761    0.0000 C   0  0
   14.3917  -11.9464    0.0000 C   0  0
   16.6220  -13.2862    0.0000 C   0  0
   17.3421  -11.5948    0.0000 C   0  0  1  0  0  0
   18.6314  -12.3510    0.0000 O   0  0
   18.6221  -13.8518    0.0000 C   0  0
   19.9149  -14.6126    0.0000 C   0  0
   19.9025  -16.1125    0.0000 C   0  0
   18.5974  -16.8518    0.0000 C   0  0
   18.5850  -18.3526    0.0000 C   0  0
   18.5726  -19.8525    0.0000 N   0  0
   17.3046  -16.0911    0.0000 C   0  0
   15.9994  -16.8304    0.0000 Cl  0  0
   17.3169  -14.5912    0.0000 C   0  0
  1  2  1  0
  2  3  1  0
  2  4  1  0
  4  5  1  1
  5  6  1  0
  6  7  2  0
  6  8  1  0
  8  9  2  0
  9 10  1  0
 10 11  2  0
 11 12  1  0
 12 13  1  0
 13 14  1  0
 14 15  1  0
 15 16  1  0
 16 17  1  0
 17 18  1  0
 18 19  1  0
 19 20  1  0
 20 21  2  0
 21 22  1  0
 22 23  2  0
 23 24  1  0
 24 25  2  0
 25 20  1  0
 24 26  1  0
 26 27  2  0
 26 28  1  0
 29 28  1  4
 29 30  1  0
 30 31  1  0
 31 32  1  0
 32 33  2  0
 32 34  1  0
 34 35  1  0
 35 29  1  0
 35 36  2  0
 28 37  1  0
 37 23  1  0
 37 38  2  0
 19 39  1  0
 39 40  1  0
 40 16  1  0
 15 41  1  0
 41 42  1  0
 42 12  1  0
 11 43  1  0
 43 44  2  0
 44  8  1  0
  4 45  1  0
 45 46  1  0
 45 47  1  0
 45 48  1  0
 48  2  1  0
 48 49  1  6
 49 50  1  0
 50 51  2  0
 51 52  1  0
 52 53  2  0
 53 54  1  0
 54 55  3  0
 53 56  1  0
 56 57  1  0
 56 58  2  0
 58 50  1  0
M  END
> <assay_chembl_id>
CHEMBL4844396

> <assay_description>
Growth inhibition of human LNCaP cells assessed as cell viability measured after 4 days in presence of R1881 by WST-8 assay

> <document_journal>
J Med Chem

> <molecule_chembl_id>
CHEMBL4879244

> <standard_value>
14

> <IC50_uM>
0.014

> <Activity>
Yes

> <Canonical_Smiles>
CC1(C)[C@H](NC(=O)c2ccc(N3CCC(N4CCN(c5ccc6c(c5)C(=O)N(C5CCC(=O)NC5=O)C6=O)CC4)CC3)cc2)C(C)(C)[C@H]1Oc1ccc(C#N)c(Cl)c1

$$$$

  SciTegic03142313312D

 59 66  0  0  1  0            999 V2000
    6.9056  -16.2135    0.0000 C   0  0
    6.1666  -17.5188    0.0000 C   0  0
    6.9211  -18.8152    0.0000 C   0  0
    5.1126  -16.5028    0.0000 C   0  0  2  0  0  0
    5.1256  -15.0020    0.0000 N   0  0
    6.4314  -14.2621    0.0000 C   0  0
    7.7241  -15.0230    0.0000 O   0  0
    6.4444  -12.7613    0.0000 C   0  0
    7.7484  -12.0200    0.0000 C   0  0
    7.7583  -10.5200    0.0000 C   0  0
    6.4643   -9.7613    0.0000 C   0  0
    6.4719   -8.2606    0.0000 N   0  0
    7.7747   -7.5171    0.0000 C   0  0
    7.7822   -6.0171    0.0000 C   0  0
    6.4870   -5.2605    0.0000 C   0  0
    6.4915   -3.7597    0.0000 C   0  0
    5.1945   -3.0045    0.0000 N   0  0
    5.1969   -1.5045    0.0000 C   0  0
    3.8991   -0.7525    0.0000 C   0  0
    2.5987   -1.5004    0.0000 N   0  0
    1.2990   -0.7500    0.0000 C   0  0
    1.2990    0.7500    0.0000 C   0  0
    0.0000    1.5000    0.0000 C   0  0
   -1.2990    0.7500    0.0000 C   0  0
   -1.2990   -0.7500    0.0000 C   0  0
    0.0000   -1.5000    0.0000 C   0  0
   -2.7248   -1.2135    0.0000 C   0  0
   -3.1882   -2.6402    0.0000 O   0  0
   -3.6065    0.0000    0.0000 N   0  0
   -5.1072    0.0000    0.0000 C   0  0  3  0  0  0
   -5.7538    1.3554    0.0000 C   0  0
   -7.2496    1.4682    0.0000 C   0  0
   -8.0952    0.2293    0.0000 C   0  0
   -9.5909    0.3422    0.0000 O   0  0
   -7.4450   -1.1225    0.0000 N   0  0
   -5.9493   -1.2353    0.0000 C   0  0
   -5.2987   -2.5869    0.0000 O   0  0
   -2.7248    1.2135    0.0000 C   0  0
   -3.1882    2.6401    0.0000 O   0  0
    2.5965   -3.0004    0.0000 C   0  0
    3.8943   -3.7525    0.0000 C   0  0
    5.1842   -6.0040    0.0000 C   0  0
    5.1766   -7.5040    0.0000 C   0  0
    5.1603  -10.5028    0.0000 C   0  0
    5.1504  -12.0027    0.0000 C   0  0
    4.0453  -17.5047    0.0000 C   0  0
    3.3236  -16.1898    0.0000 C   0  0
    3.2737  -18.7911    0.0000 C   0  0
    5.0989  -18.5724    0.0000 C   0  0  1  0  0  0
    5.0859  -20.0671    0.0000 O   0  0
    3.7801  -20.8070    0.0000 C   0  0
    3.7648  -22.3069    0.0000 C   0  0
    2.4583  -23.0437    0.0000 C   0  0
    1.1669  -22.2806    0.0000 C   0  0
   -0.1404  -23.0179    0.0000 C   0  0
   -1.4470  -23.7547    0.0000 N   0  0
    1.1821  -20.7807    0.0000 C   0  0
   -0.1093  -20.0176    0.0000 Cl  0  0
    2.4886  -20.0439    0.0000 C   0  0
  1  2  1  0
  2  3  1  0
  2  4  1  0
  4  5  1  1
  5  6  1  0
  6  7  2  0
  6  8  1  0
  8  9  2  0
  9 10  1  0
 10 11  2  0
 11 12  1  0
 12 13  1  0
 13 14  1  0
 14 15  1  0
 15 16  1  0
 16 17  1  0
 17 18  1  0
 18 19  1  0
 19 20  1  0
 20 21  1  0
 21 22  2  0
 22 23  1  0
 23 24  2  0
 24 25  1  0
 25 26  2  0
 26 21  1  0
 25 27  1  0
 27 28  2  0
 27 29  1  0
 30 29  1  4
 30 31  1  0
 31 32  1  0
 32 33  1  0
 33 34  2  0
 33 35  1  0
 35 36  1  0
 36 30  1  0
 36 37  2  0
 29 38  1  0
 38 24  1  0
 38 39  2  0
 20 40  1  0
 40 41  1  0
 41 17  1  0
 15 42  1  0
 42 43  1  0
 43 12  1  0
 11 44  1  0
 44 45  2  0
 45  8  1  0
  4 46  1  0
 46 47  1  0
 46 48  1  0
 46 49  1  0
 49  2  1  0
 49 50  1  6
 50 51  1  0
 51 52  2  0
 52 53  1  0
 53 54  2  0
 54 55  1  0
 55 56  3  0
 54 57  1  0
 57 58  1  0
 57 59  2  0
 59 51  1  0
M  END
> <assay_chembl_id>
CHEMBL4844396

> <assay_description>
Growth inhibition of human LNCaP cells assessed as cell viability measured after 4 days in presence of R1881 by WST-8 assay

> <document_journal>
J Med Chem

> <molecule_chembl_id>
CHEMBL4867584

> <standard_value>
13

> <IC50_uM>
0.013

> <Activity>
Yes

> <Canonical_Smiles>
CC1(C)[C@H](NC(=O)c2ccc(N3CCC(CN4CCN(c5ccc6c(c5)C(=O)N(C5CCC(=O)NC5=O)C6=O)CC4)CC3)cc2)C(C)(C)[C@H]1Oc1ccc(C#N)c(Cl)c1

$$$$

  SciTegic03142313312D

 60 67  0  0  1  0            999 V2000
    6.1903   -5.9992    0.0000 C   0  0
    4.6946   -5.8864    0.0000 N   0  0
    3.8490   -7.1253    0.0000 C   0  0
    4.4991   -8.4771    0.0000 O   0  0
    2.3532   -7.0124    0.0000 C   0  0
    1.7031   -5.6606    0.0000 C   0  0
    2.5536   -4.4230    0.0000 C   0  0  3  0  0  0
    1.8032   -3.1233    0.0000 N   0  0
    2.4133   -1.7530    0.0000 C   0  0
    3.8805   -1.4410    0.0000 O   0  0
    1.2990   -0.7500    0.0000 C   0  0
    1.2990    0.7500    0.0000 C   0  0
    0.0000    1.5000    0.0000 C   0  0
   -1.2990    0.7500    0.0000 C   0  0
   -2.5987    1.5004    0.0000 N   0  0
   -2.6012    3.0004    0.0000 C   0  0
   -3.9015    3.7484    0.0000 C   0  0
   -5.1993    2.9963    0.0000 C   0  0
   -6.5018    3.7420    0.0000 C   0  0
   -7.7993    2.9876    0.0000 N   0  0
   -9.1021    3.7310    0.0000 C   0  0
  -10.3974    2.9744    0.0000 C   0  0
  -10.3898    1.4745    0.0000 N   0  0
  -11.6857    0.7175    0.0000 C   0  0
  -12.9898    1.4588    0.0000 C   0  0
  -14.2838    0.7002    0.0000 C   0  0
  -14.2739   -0.7997    0.0000 C   0  0
  -15.5670   -1.5614    0.0000 C   0  0
  -16.8723   -0.8223    0.0000 O   0  0
  -15.5549   -3.0622    0.0000 N   0  0
  -16.8481   -3.8239    0.0000 C   0  0  1  0  0  0
  -17.1822   -5.2492    0.0000 C   0  0
  -15.6825   -5.2167    0.0000 C   0  0
  -17.9103   -6.5606    0.0000 C   0  0
  -18.6336   -4.8705    0.0000 C   0  0  2  0  0  0
  -19.9215   -5.6292    0.0000 O   0  0
  -19.9094   -7.1299    0.0000 C   0  0
  -21.2007   -7.8932    0.0000 C   0  0
  -21.1856   -9.3931    0.0000 C   0  0
  -19.8790  -10.1299    0.0000 C   0  0
  -19.8638  -11.6306    0.0000 C   0  0
  -19.8486  -13.1306    0.0000 N   0  0
  -18.5876   -9.3668    0.0000 C   0  0
  -17.2810  -10.1036    0.0000 Cl  0  0
  -18.6028   -7.8669    0.0000 C   0  0
  -18.2550   -3.4191    0.0000 C   0  0
  -17.4940   -2.1264    0.0000 C   0  0
  -19.7550   -3.4139    0.0000 C   0  0
  -12.9699   -1.5411    0.0000 C   0  0
  -11.6758   -0.7825    0.0000 C   0  0
   -9.0870    0.7310    0.0000 C   0  0
   -7.7918    1.4876    0.0000 C   0  0
   -5.1969    1.4963    0.0000 C   0  0
   -3.8967    0.7484    0.0000 C   0  0
   -1.2990   -0.7500    0.0000 C   0  0
    0.0000   -1.5000    0.0000 C   0  0
    0.3114   -2.9665    0.0000 C   0  0
   -0.6923   -4.0811    0.0000 O   0  0
    4.0445   -4.5346    0.0000 C   0  0
    4.8897   -3.2954    0.0000 O   0  0
  1  2  1  0
  2  3  1  0
  3  4  2  0
  3  5  1  0
  5  6  1  0
  6  7  1  0
  7  8  1  4
  8  9  1  0
  9 10  2  0
  9 11  1  0
 11 12  2  0
 12 13  1  0
 13 14  2  0
 14 15  1  0
 15 16  1  0
 16 17  1  0
 17 18  1  0
 18 19  1  0
 19 20  1  0
 20 21  1  0
 21 22  1  0
 22 23  1  0
 23 24  1  0
 24 25  2  0
 25 26  1  0
 26 27  2  0
 27 28  1  0
 28 29  2  0
 28 30  1  0
 31 30  1  1
 31 32  1  0
 32 33  1  0
 32 34  1  0
 32 35  1  0
 35 36  1  6
 36 37  1  0
 37 38  2  0
 38 39  1  0
 39 40  2  0
 40 41  1  0
 41 42  3  0
 40 43  1  0
 43 44  1  0
 43 45  2  0
 45 37  1  0
 35 46  1  0
 46 31  1  0
 46 47  1  0
 46 48  1  0
 27 49  1  0
 49 50  2  0
 50 24  1  0
 23 51  1  0
 51 52  1  0
 52 20  1  0
 18 53  1  0
 53 54  1  0
 54 15  1  0
 14 55  1  0
 55 56  2  0
 56 11  1  0
 56 57  1  0
 57  8  1  0
 57 58  2  0
  7 59  1  0
 59  2  1  0
 59 60  2  0
M  END
> <assay_chembl_id>
CHEMBL4844396

> <assay_description>
Growth inhibition of human LNCaP cells assessed as cell viability measured after 4 days in presence of R1881 by WST-8 assay

> <document_journal>
J Med Chem

> <molecule_chembl_id>
CHEMBL4849514

> <standard_value>
237

> <IC50_uM>
0.237

> <Activity>
Yes

> <Canonical_Smiles>
CN1C(=O)CCC(N2C(=O)c3ccc(N4CCC(CN5CCN(c6ccc(C(=O)N[C@H]7C(C)(C)[C@H](Oc8ccc(C#N)c(Cl)c8)C7(C)C)cc6)CC5)CC4)cc3C2=O)C1=O

$$$$

  SciTegic03142313312D

 34 37  0  0  1  0            999 V2000
    2.5981   -1.5000    0.0000 C   0  0
    1.2990   -0.7500    0.0000 N   0  0
    1.2990    0.7500    0.0000 C   0  0
    0.0000    1.5000    0.0000 C   0  0
   -1.2990    0.7500    0.0000 N   0  0
   -2.5987    1.5004    0.0000 C   0  0
   -2.6012    3.0004    0.0000 C   0  0
   -3.9015    3.7484    0.0000 C   0  0
   -5.1993    2.9963    0.0000 C   0  0
   -6.5018    3.7420    0.0000 C   0  0
   -6.5068    5.2419    0.0000 O   0  0
   -7.7993    2.9876    0.0000 N   0  0
   -9.1017    3.7333    0.0000 C   0  0  1  0  0  0
  -10.5052    3.3170    0.0000 C   0  0
   -9.7337    2.0306    0.0000 C   0  0
  -12.0051    3.2995    0.0000 C   0  0
  -10.8957    4.7653    0.0000 C   0  0  2  0  0  0
  -12.1930    5.5079    0.0000 O   0  0
  -13.4904    4.7535    0.0000 C   0  0
  -14.7933    5.4969    0.0000 C   0  0
  -16.0885    4.7403    0.0000 C   0  0
  -16.0809    3.2403    0.0000 C   0  0
  -17.3768    2.4833    0.0000 C   0  0
  -18.6721    1.7267    0.0000 N   0  0
  -14.7781    2.4969    0.0000 C   0  0
  -14.7705    0.9969    0.0000 Cl  0  0
  -13.4829    3.2535    0.0000 C   0  0
   -9.4474    5.1558    0.0000 C   0  0
   -7.9476    5.1356    0.0000 C   0  0
  -10.1863    6.4612    0.0000 C   0  0
   -5.1969    1.4963    0.0000 C   0  0
   -3.8967    0.7484    0.0000 C   0  0
   -1.2990   -0.7500    0.0000 C   0  0
    0.0000   -1.5000    0.0000 C   0  0
  1  2  1  0
  2  3  1  0
  3  4  1  0
  4  5  1  0
  5  6  1  0
  6  7  2  0
  7  8  1  0
  8  9  2  0
  9 10  1  0
 10 11  2  0
 10 12  1  0
 13 12  1  1
 13 14  1  0
 14 15  1  0
 14 16  1  0
 14 17  1  0
 17 18  1  6
 18 19  1  0
 19 20  2  0
 20 21  1  0
 21 22  2  0
 22 23  1  0
 23 24  3  0
 22 25  1  0
 25 26  1  0
 25 27  2  0
 27 19  1  0
 17 28  1  0
 28 13  1  0
 28 29  1  0
 28 30  1  0
  9 31  1  0
 31 32  2  0
 32  6  1  0
  5 33  1  0
 33 34  1  0
 34  2  1  0
M  END
> <assay_chembl_id>
CHEMBL4844396

> <assay_description>
Growth inhibition of human LNCaP cells assessed as cell viability measured after 4 days in presence of R1881 by WST-8 assay

> <document_journal>
J Med Chem

> <molecule_chembl_id>
CHEMBL4863542

> <standard_value>
81

> <IC50_uM>
0.081

> <Activity>
Yes

> <Canonical_Smiles>
CN1CCN(c2ccc(C(=O)N[C@H]3C(C)(C)[C@H](Oc4ccc(C#N)c(Cl)c4)C3(C)C)cc2)CC1

$$$$

  SciTegic03142313312D

 58 65  0  0  1  0            999 V2000
   -1.4533  -24.6912    0.0000 N   0  0
   -0.1467  -23.9544    0.0000 C   0  0
    1.1606  -23.2172    0.0000 C   0  0
    2.4519  -23.9803    0.0000 C   0  0
    3.7585  -23.2434    0.0000 C   0  0
    3.7738  -21.7435    0.0000 C   0  0
    5.0795  -21.0036    0.0000 O   0  0
    5.0926  -19.5028    0.0000 C   0  0  1  0  0  0
    6.3966  -18.7615    0.0000 C   0  0
    6.4066  -17.2615    0.0000 C   0  0
    5.1126  -16.5028    0.0000 C   0  0  2  0  0  0
    5.1256  -15.0020    0.0000 N   0  0
    6.4314  -14.2621    0.0000 C   0  0
    7.7241  -15.0230    0.0000 O   0  0
    6.4444  -12.7613    0.0000 C   0  0
    7.7484  -12.0200    0.0000 C   0  0
    7.7583  -10.5200    0.0000 C   0  0
    6.4643   -9.7613    0.0000 C   0  0
    6.4719   -8.2606    0.0000 N   0  0
    7.7747   -7.5171    0.0000 C   0  0
    7.7822   -6.0171    0.0000 C   0  0
    6.4870   -5.2605    0.0000 C   0  0
    6.4915   -3.7597    0.0000 C   0  0
    5.1945   -3.0045    0.0000 N   0  0
    5.1969   -1.5045    0.0000 C   0  0
    3.8991   -0.7525    0.0000 C   0  0
    2.5987   -1.5004    0.0000 N   0  0
    1.2990   -0.7500    0.0000 C   0  0
    1.2990    0.7500    0.0000 C   0  0
    0.0000    1.5000    0.0000 C   0  0
   -1.2990    0.7500    0.0000 C   0  0
   -1.2990   -0.7500    0.0000 C   0  0
    0.0000   -1.5000    0.0000 C   0  0
    0.0000   -3.0000    0.0000 F   0  0
   -2.4133    1.7530    0.0000 C   0  0
   -3.8805    1.4410    0.0000 O   0  0
   -1.8032    3.1233    0.0000 N   0  0
   -2.5536    4.4230    0.0000 C   0  0  3  0  0  0
   -1.7031    5.6606    0.0000 C   0  0
   -2.3533    7.0124    0.0000 C   0  0
   -3.8490    7.1253    0.0000 C   0  0
   -4.4992    8.4770    0.0000 O   0  0
   -4.6946    5.8863    0.0000 N   0  0
   -4.0445    4.5346    0.0000 C   0  0
   -4.8897    3.2954    0.0000 O   0  0
   -0.3115    2.9665    0.0000 C   0  0
    0.6923    4.0811    0.0000 O   0  0
    2.5965   -3.0004    0.0000 C   0  0
    3.8943   -3.7525    0.0000 C   0  0
    5.1842   -6.0040    0.0000 C   0  0
    5.1766   -7.5040    0.0000 C   0  0
    5.1603  -10.5028    0.0000 N   0  0
    5.1504  -12.0027    0.0000 N   0  0
    3.8086  -17.2442    0.0000 C   0  0
    3.7986  -18.7442    0.0000 C   0  0
    2.4823  -20.9804    0.0000 C   0  0
    1.1757  -21.7172    0.0000 C   0  0
   -0.1157  -20.9541    0.0000 Cl  0  0
  1  2  3  0
  2  3  1  0
  3  4  2  0
  4  5  1  0
  5  6  2  0
  6  7  1  0
  8  7  1  6
  8  9  1  0
  9 10  1  0
 10 11  1  0
 11 12  1  1
 12 13  1  0
 13 14  2  0
 13 15  1  0
 15 16  2  0
 16 17  1  0
 17 18  2  0
 18 19  1  0
 19 20  1  0
 20 21  1  0
 21 22  1  0
 22 23  1  0
 23 24  1  0
 24 25  1  0
 25 26  1  0
 26 27  1  0
 27 28  1  0
 28 29  2  0
 29 30  1  0
 30 31  2  0
 31 32  1  0
 32 33  2  0
 33 28  1  0
 33 34  1  0
 31 35  1  0
 35 36  2  0
 35 37  1  0
 38 37  1  4
 38 39  1  0
 39 40  1  0
 40 41  1  0
 41 42  2  0
 41 43  1  0
 43 44  1  0
 44 38  1  0
 44 45  2  0
 37 46  1  0
 46 30  1  0
 46 47  2  0
 27 48  1  0
 48 49  1  0
 49 24  1  0
 22 50  1  0
 50 51  1  0
 51 19  1  0
 18 52  1  0
 52 53  2  0
 53 15  1  0
 11 54  1  0
 54 55  1  0
 55  8  1  0
  6 56  1  0
 56 57  2  0
 57  3  1  0
 57 58  1  0
M  END
> <assay_chembl_id>
CHEMBL4844615

> <assay_description>
Growth inhibition of human LNCaP cells carrying AR T878A mutant assessed as cell viability by WST-8 assay

> <document_journal>
J Med Chem

> <molecule_chembl_id>
CHEMBL4862963

> <standard_value>
33.1

> <IC50_uM>
0.0331

> <Activity>
Yes

> <Canonical_Smiles>
N#Cc1ccc(O[C@H]2CC[C@H](NC(=O)c3ccc(N4CCC(CN5CCN(c6cc7c(cc6F)C(=O)N(C6CCC(=O)NC6=O)C7=O)CC5)CC4)nn3)CC2)cc1Cl

$$$$

  SciTegic03142313312D

 57 64  0  0  1  0            999 V2000
   20.7441  -12.0817    0.0000 C   0  0
   19.4402  -12.8232    0.0000 N   0  0
   19.4309  -14.3240    0.0000 C   0  0
   20.7237  -15.0848    0.0000 C   0  0
   20.7113  -16.5848    0.0000 C   0  0
   19.4061  -17.3240    0.0000 C   0  0
   19.3938  -18.8248    0.0000 C   0  0
   19.3814  -20.3247    0.0000 N   0  0
   18.1133  -16.5633    0.0000 C   0  0
   16.8082  -17.3026    0.0000 Cl  0  0
   18.1257  -15.0634    0.0000 C   0  0
   18.1456  -12.0639    0.0000 C   0  0  1  0  0  0
   18.1528  -10.5639    0.0000 C   0  0
   16.8574   -9.8077    0.0000 C   0  0
   15.5547  -10.5515    0.0000 C   0  0  2  0  0  0
   14.2601   -9.7922    0.0000 N   0  0
   14.2694   -8.2914    0.0000 C   0  0
   15.5732   -7.5499    0.0000 O   0  0
   12.9747   -7.5322    0.0000 C   0  0
   12.9819   -6.0322    0.0000 C   0  0
   11.6864   -5.2760    0.0000 C   0  0
   10.3837   -6.0198    0.0000 C   0  0
    9.0864   -5.2653    0.0000 N   0  0
    9.0912   -3.7653    0.0000 C   0  0
    7.7945   -3.0112    0.0000 C   0  0
    6.4930   -3.7570    0.0000 C   0  0
    5.1945   -3.0045    0.0000 N   0  0
    5.1969   -1.5045    0.0000 C   0  0
    3.8991   -0.7525    0.0000 C   0  0
    2.5987   -1.5004    0.0000 N   0  0
    1.2990   -0.7500    0.0000 C   0  0
    1.2990    0.7500    0.0000 C   0  0
    0.0000    1.5000    0.0000 C   0  0
   -1.2990    0.7500    0.0000 C   0  0
   -1.2990   -0.7500    0.0000 C   0  0
    0.0000   -1.5000    0.0000 C   0  0
   -2.7248   -1.2135    0.0000 C   0  0
   -3.1882   -2.6402    0.0000 O   0  0
   -3.6065    0.0000    0.0000 N   0  0
   -5.1072    0.0000    0.0000 C   0  0  3  0  0  0
   -5.7538    1.3554    0.0000 C   0  0
   -7.2496    1.4682    0.0000 C   0  0
   -8.0952    0.2293    0.0000 C   0  0
   -9.5909    0.3422    0.0000 O   0  0
   -7.4450   -1.1225    0.0000 N   0  0
   -5.9493   -1.2353    0.0000 C   0  0
   -5.2987   -2.5869    0.0000 O   0  0
   -2.7248    1.2135    0.0000 C   0  0
   -3.1882    2.6401    0.0000 O   0  0
    2.5965   -3.0004    0.0000 C   0  0
    3.8943   -3.7525    0.0000 C   0  0
    6.4884   -5.2570    0.0000 C   0  0
    7.7850   -6.0111    0.0000 C   0  0
   10.3767   -7.5198    0.0000 C   0  0
   11.6721   -8.2760    0.0000 C   0  0
   15.5476  -12.0515    0.0000 C   0  0
   16.8430  -12.8077    0.0000 C   0  0
  1  2  1  0
  2  3  1  0
  3  4  2  0
  4  5  1  0
  5  6  2  0
  6  7  1  0
  7  8  3  0
  6  9  1  0
  9 10  1  0
  9 11  2  0
 11  3  1  0
 12  2  1  6
 12 13  1  0
 13 14  1  0
 14 15  1  0
 15 16  1  1
 16 17  1  0
 17 18  2  0
 17 19  1  0
 19 20  2  0
 20 21  1  0
 21 22  2  0
 22 23  1  0
 23 24  1  0
 24 25  1  0
 25 26  1  0
 26 27  1  0
 27 28  1  0
 28 29  1  0
 29 30  1  0
 30 31  1  0
 31 32  2  0
 32 33  1  0
 33 34  2  0
 34 35  1  0
 35 36  2  0
 36 31  1  0
 35 37  1  0
 37 38  2  0
 37 39  1  0
 40 39  1  4
 40 41  1  0
 41 42  1  0
 42 43  1  0
 43 44  2  0
 43 45  1  0
 45 46  1  0
 46 40  1  0
 46 47  2  0
 39 48  1  0
 48 34  1  0
 48 49  2  0
 30 50  1  0
 50 51  1  0
 51 27  1  0
 26 52  1  0
 52 53  1  0
 53 23  1  0
 22 54  1  0
 54 55  2  0
 55 19  1  0
 15 56  1  0
 56 57  1  0
 57 12  1  0
M  END
> <assay_chembl_id>
CHEMBL4844615

> <assay_description>
Growth inhibition of human LNCaP cells carrying AR T878A mutant assessed as cell viability by WST-8 assay

> <document_journal>
J Med Chem

> <molecule_chembl_id>
CHEMBL4849315

> <standard_value>
15.3

> <IC50_uM>
0.0153

> <Activity>
Yes

> <Canonical_Smiles>
CN(c1ccc(C#N)c(Cl)c1)[C@H]1CC[C@H](NC(=O)c2ccc(N3CCC(N4CCN(c5ccc6c(c5)C(=O)N(C5CCC(=O)NC5=O)C6=O)CC4)CC3)cc2)CC1

$$$$

  SciTegic03142313312D

 57 64  0  0  1  0            999 V2000
   20.7441  -12.0817    0.0000 C   0  0
   19.4402  -12.8232    0.0000 N   0  0
   19.4309  -14.3240    0.0000 C   0  0
   20.7237  -15.0848    0.0000 C   0  0
   20.7113  -16.5848    0.0000 C   0  0
   19.4061  -17.3240    0.0000 C   0  0
   19.3938  -18.8248    0.0000 C   0  0
   19.3814  -20.3247    0.0000 N   0  0
   18.1133  -16.5633    0.0000 C   0  0
   16.8082  -17.3026    0.0000 Cl  0  0
   18.1257  -15.0634    0.0000 C   0  0
   18.1456  -12.0639    0.0000 C   0  0  1  0  0  0
   18.1528  -10.5639    0.0000 C   0  0
   16.8574   -9.8077    0.0000 C   0  0
   15.5547  -10.5515    0.0000 C   0  0  2  0  0  0
   14.2601   -9.7922    0.0000 N   0  0
   14.2694   -8.2914    0.0000 C   0  0
   15.5732   -7.5499    0.0000 O   0  0
   12.9747   -7.5322    0.0000 C   0  0
   12.9819   -6.0322    0.0000 C   0  0
   11.6864   -5.2760    0.0000 C   0  0
   10.3837   -6.0198    0.0000 C   0  0
    9.0864   -5.2653    0.0000 N   0  0
    9.0912   -3.7653    0.0000 C   0  0
    7.7945   -3.0112    0.0000 C   0  0
    6.4930   -3.7570    0.0000 N   0  0
    5.1945   -3.0045    0.0000 C   0  0
    5.1969   -1.5045    0.0000 C   0  0
    3.8991   -0.7525    0.0000 C   0  0
    2.5987   -1.5004    0.0000 N   0  0
    1.2990   -0.7500    0.0000 C   0  0
    1.2990    0.7500    0.0000 C   0  0
    0.0000    1.5000    0.0000 C   0  0
   -1.2990    0.7500    0.0000 C   0  0
   -1.2990   -0.7500    0.0000 C   0  0
    0.0000   -1.5000    0.0000 C   0  0
   -2.7248   -1.2135    0.0000 C   0  0
   -3.1882   -2.6402    0.0000 O   0  0
   -3.6065    0.0000    0.0000 N   0  0
   -5.1072    0.0000    0.0000 C   0  0  3  0  0  0
   -5.7538    1.3554    0.0000 C   0  0
   -7.2496    1.4682    0.0000 C   0  0
   -8.0952    0.2293    0.0000 C   0  0
   -9.5909    0.3422    0.0000 O   0  0
   -7.4450   -1.1225    0.0000 N   0  0
   -5.9493   -1.2353    0.0000 C   0  0
   -5.2987   -2.5869    0.0000 O   0  0
   -2.7248    1.2135    0.0000 C   0  0
   -3.1882    2.6401    0.0000 O   0  0
    2.5965   -3.0004    0.0000 C   0  0
    3.8943   -3.7525    0.0000 C   0  0
    6.4884   -5.2570    0.0000 C   0  0
    7.7850   -6.0111    0.0000 C   0  0
   10.3767   -7.5198    0.0000 C   0  0
   11.6721   -8.2760    0.0000 C   0  0
   15.5476  -12.0515    0.0000 C   0  0
   16.8430  -12.8077    0.0000 C   0  0
  1  2  1  0
  2  3  1  0
  3  4  2  0
  4  5  1  0
  5  6  2  0
  6  7  1  0
  7  8  3  0
  6  9  1  0
  9 10  1  0
  9 11  2  0
 11  3  1  0
 12  2  1  6
 12 13  1  0
 13 14  1  0
 14 15  1  0
 15 16  1  1
 16 17  1  0
 17 18  2  0
 17 19  1  0
 19 20  2  0
 20 21  1  0
 21 22  2  0
 22 23  1  0
 23 24  1  0
 24 25  1  0
 25 26  1  0
 26 27  1  0
 27 28  1  0
 28 29  1  0
 29 30  1  0
 30 31  1  0
 31 32  2  0
 32 33  1  0
 33 34  2  0
 34 35  1  0
 35 36  2  0
 36 31  1  0
 35 37  1  0
 37 38  2  0
 37 39  1  0
 40 39  1  4
 40 41  1  0
 41 42  1  0
 42 43  1  0
 43 44  2  0
 43 45  1  0
 45 46  1  0
 46 40  1  0
 46 47  2  0
 39 48  1  0
 48 34  1  0
 48 49  2  0
 30 50  1  0
 50 51  1  0
 51 27  1  0
 26 52  1  0
 52 53  1  0
 53 23  1  0
 22 54  1  0
 54 55  2  0
 55 19  1  0
 15 56  1  0
 56 57  1  0
 57 12  1  0
M  END
> <assay_chembl_id>
CHEMBL4844615

> <assay_description>
Growth inhibition of human LNCaP cells carrying AR T878A mutant assessed as cell viability by WST-8 assay

> <document_journal>
J Med Chem

> <molecule_chembl_id>
CHEMBL4854467

> <standard_value>
22.3

> <IC50_uM>
0.0223

> <Activity>
Yes

> <Canonical_Smiles>
CN(c1ccc(C#N)c(Cl)c1)[C@H]1CC[C@H](NC(=O)c2ccc(N3CCN(C4CCN(c5ccc6c(c5)C(=O)N(C5CCC(=O)NC5=O)C6=O)CC4)CC3)cc2)CC1

$$$$

  SciTegic03142313312D

 56 63  0  0  1  0            999 V2000
    5.5611  -21.2950    0.0000 C   0  0
    4.2684  -20.5340    0.0000 N   0  0
    2.9626  -21.2739    0.0000 C   0  0
    2.9473  -22.7738    0.0000 C   0  0
    1.6407  -23.5106    0.0000 C   0  0
    0.3493  -22.7474    0.0000 C   0  0
   -0.9580  -23.4846    0.0000 C   0  0
   -2.2646  -24.2213    0.0000 N   0  0
    0.3646  -21.2475    0.0000 C   0  0
   -0.9268  -20.4843    0.0000 Cl  0  0
    1.6712  -20.5107    0.0000 C   0  0
    4.2816  -19.0333    0.0000 C   0  0  1  0  0  0
    5.5856  -18.2920    0.0000 C   0  0
    5.5957  -16.7920    0.0000 C   0  0
    4.3017  -16.0332    0.0000 C   0  0  2  0  0  0
    4.3148  -14.5325    0.0000 N   0  0
    5.6206  -13.7926    0.0000 C   0  0
    6.9132  -14.5535    0.0000 O   0  0
    5.6337  -12.2918    0.0000 C   0  0
    6.9377  -11.5505    0.0000 C   0  0
    6.9477  -10.0506    0.0000 C   0  0
    5.6537   -9.2918    0.0000 C   0  0
    5.6613   -7.7911    0.0000 N   0  0
    6.9642   -7.0477    0.0000 C   0  0
    6.9718   -5.5477    0.0000 C   0  0
    5.6766   -4.7910    0.0000 N   0  0
    5.6812   -3.2902    0.0000 C   0  0
    4.3895   -2.5380    0.0000 C   0  0
    4.0035   -1.0885    0.0000 C   0  0
    2.5987   -1.5004    0.0000 N   0  0
    1.2990   -0.7500    0.0000 C   0  0
    1.2990    0.7500    0.0000 C   0  0
    0.0000    1.5000    0.0000 C   0  0
   -1.2990    0.7500    0.0000 C   0  0
   -1.2990   -0.7500    0.0000 C   0  0
    0.0000   -1.5000    0.0000 C   0  0
   -2.7248   -1.2135    0.0000 C   0  0
   -3.1882   -2.6402    0.0000 O   0  0
   -3.6065    0.0000    0.0000 N   0  0
   -5.1072    0.0000    0.0000 C   0  0  3  0  0  0
   -5.7538    1.3554    0.0000 C   0  0
   -7.2496    1.4682    0.0000 C   0  0
   -8.0952    0.2293    0.0000 C   0  0
   -9.5909    0.3422    0.0000 O   0  0
   -7.4450   -1.1225    0.0000 N   0  0
   -5.9493   -1.2353    0.0000 C   0  0
   -5.2987   -2.5869    0.0000 O   0  0
   -2.7248    1.2135    0.0000 C   0  0
   -3.1882    2.6401    0.0000 O   0  0
    2.9400   -2.9240    0.0000 C   0  0
    4.3737   -5.5345    0.0000 C   0  0
    4.3661   -7.0345    0.0000 C   0  0
    4.3497  -10.0332    0.0000 C   0  0
    4.3397  -11.5332    0.0000 C   0  0
    2.9976  -16.7746    0.0000 C   0  0
    2.9876  -18.2746    0.0000 C   0  0
  1  2  1  0
  2  3  1  0
  3  4  2  0
  4  5  1  0
  5  6  2  0
  6  7  1  0
  7  8  3  0
  6  9  1  0
  9 10  1  0
  9 11  2  0
 11  3  1  0
 12  2  1  6
 12 13  1  0
 13 14  1  0
 14 15  1  0
 15 16  1  1
 16 17  1  0
 17 18  2  0
 17 19  1  0
 19 20  2  0
 20 21  1  0
 21 22  2  0
 22 23  1  0
 23 24  1  0
 24 25  1  0
 25 26  1  0
 26 27  1  0
 27 28  1  0
 28 29  1  0
 29 30  1  0
 30 31  1  0
 31 32  2  0
 32 33  1  0
 33 34  2  0
 34 35  1  0
 35 36  2  0
 36 31  1  0
 35 37  1  0
 37 38  2  0
 37 39  1  0
 40 39  1  4
 40 41  1  0
 41 42  1  0
 42 43  1  0
 43 44  2  0
 43 45  1  0
 45 46  1  0
 46 40  1  0
 46 47  2  0
 39 48  1  0
 48 34  1  0
 48 49  2  0
 30 50  1  0
 50 28  1  0
 26 51  1  0
 51 52  1  0
 52 23  1  0
 22 53  1  0
 53 54  2  0
 54 19  1  0
 15 55  1  0
 55 56  1  0
 56 12  1  0
M  END
> <assay_chembl_id>
CHEMBL4844615

> <assay_description>
Growth inhibition of human LNCaP cells carrying AR T878A mutant assessed as cell viability by WST-8 assay

> <document_journal>
J Med Chem

> <molecule_chembl_id>
CHEMBL4862569

> <standard_value>
11.4

> <IC50_uM>
0.0114

> <Activity>
Yes

> <Canonical_Smiles>
CN(c1ccc(C#N)c(Cl)c1)[C@H]1CC[C@H](NC(=O)c2ccc(N3CCN(CC4CN(c5ccc6c(c5)C(=O)N(C5CCC(=O)NC5=O)C6=O)C4)CC3)cc2)CC1

$$$$

  SciTegic03142313312D

 55 62  0  0  1  0            999 V2000
   18.1678  -14.0803    0.0000 C   0  0
   16.7504  -14.5713    0.0000 N   0  0
   16.4672  -16.0451    0.0000 C   0  0
   17.5993  -17.0292    0.0000 C   0  0
   17.3132  -18.5016    0.0000 C   0  0
   15.8950  -18.9901    0.0000 C   0  0
   15.6088  -20.4634    0.0000 C   0  0
   15.3227  -21.9359    0.0000 N   0  0
   14.7629  -18.0062    0.0000 C   0  0
   13.3446  -18.4947    0.0000 Cl  0  0
   15.0489  -16.5337    0.0000 C   0  0
   15.6162  -13.5883    0.0000 C   0  0  1  0  0  0
   15.8972  -12.1149    0.0000 C   0  0
   14.7617  -11.1348    0.0000 C   0  0
   13.3450  -11.6282    0.0000 C   0  0  2  0  0  0
   12.2108  -10.6453    0.0000 N   0  0
   12.4940   -9.1714    0.0000 C   0  0
   13.9114   -8.6804    0.0000 O   0  0
   11.3598   -8.1885    0.0000 C   0  0
   11.6408   -6.7150    0.0000 C   0  0
   10.5052   -5.7350    0.0000 C   0  0
    9.0886   -6.2284    0.0000 C   0  0
    7.9509   -5.2497    0.0000 N   0  0
    8.2295   -3.7758    0.0000 C   0  0
    7.0923   -2.7975    0.0000 C   0  0
    5.6880   -3.2905    0.0000 N   0  0
    4.3895   -2.5380    0.0000 C   0  0
    4.0035   -1.0885    0.0000 C   0  0
    2.5987   -1.5004    0.0000 N   0  0
    1.2990   -0.7500    0.0000 C   0  0
    1.2990    0.7500    0.0000 C   0  0
    0.0000    1.5000    0.0000 C   0  0
   -1.2990    0.7500    0.0000 C   0  0
   -1.2990   -0.7500    0.0000 C   0  0
    0.0000   -1.5000    0.0000 C   0  0
   -2.7248   -1.2135    0.0000 C   0  0
   -3.1882   -2.6402    0.0000 O   0  0
   -3.6065    0.0000    0.0000 N   0  0
   -5.1072    0.0000    0.0000 C   0  0  3  0  0  0
   -5.7538    1.3554    0.0000 C   0  0
   -7.2496    1.4682    0.0000 C   0  0
   -8.0952    0.2293    0.0000 C   0  0
   -9.5909    0.3422    0.0000 O   0  0
   -7.4450   -1.1225    0.0000 N   0  0
   -5.9493   -1.2353    0.0000 C   0  0
   -5.2987   -2.5869    0.0000 O   0  0
   -2.7248    1.2135    0.0000 C   0  0
   -3.1882    2.6401    0.0000 O   0  0
    2.9400   -2.9240    0.0000 C   0  0
    5.3980   -4.7671    0.0000 C   0  0
    6.5351   -5.7454    0.0000 C   0  0
    8.8077   -7.7019    0.0000 C   0  0
    9.9433   -8.6819    0.0000 C   0  0
   13.0642  -13.1017    0.0000 C   0  0
   14.1997  -14.0817    0.0000 C   0  0
  1  2  1  0
  2  3  1  0
  3  4  2  0
  4  5  1  0
  5  6  2  0
  6  7  1  0
  7  8  3  0
  6  9  1  0
  9 10  1  0
  9 11  2  0
 11  3  1  0
 12  2  1  6
 12 13  1  0
 13 14  1  0
 14 15  1  0
 15 16  1  1
 16 17  1  0
 17 18  2  0
 17 19  1  0
 19 20  2  0
 20 21  1  0
 21 22  2  0
 22 23  1  0
 23 24  1  0
 24 25  1  0
 25 26  1  0
 26 27  1  0
 27 28  1  0
 28 29  1  0
 29 30  1  0
 30 31  2  0
 31 32  1  0
 32 33  2  0
 33 34  1  0
 34 35  2  0
 35 30  1  0
 34 36  1  0
 36 37  2  0
 36 38  1  0
 39 38  1  4
 39 40  1  0
 40 41  1  0
 41 42  1  0
 42 43  2  0
 42 44  1  0
 44 45  1  0
 45 39  1  0
 45 46  2  0
 38 47  1  0
 47 33  1  0
 47 48  2  0
 29 49  1  0
 49 27  1  0
 26 50  1  0
 50 51  1  0
 51 23  1  0
 22 52  1  0
 52 53  2  0
 53 19  1  0
 15 54  1  0
 54 55  1  0
 55 12  1  0
M  END
> <assay_chembl_id>
CHEMBL4844615

> <assay_description>
Growth inhibition of human LNCaP cells carrying AR T878A mutant assessed as cell viability by WST-8 assay

> <document_journal>
J Med Chem

> <molecule_chembl_id>
CHEMBL4870803

> <standard_value>
16.2

> <IC50_uM>
0.0162

> <Activity>
Yes

> <Canonical_Smiles>
CN(c1ccc(C#N)c(Cl)c1)[C@H]1CC[C@H](NC(=O)c2ccc(N3CCN(C4CN(c5ccc6c(c5)C(=O)N(C5CCC(=O)NC5=O)C6=O)C4)CC3)cc2)CC1

$$$$

  SciTegic03142313312D

 56 63  0  0  1  0            999 V2000
    4.1779  -20.6067    0.0000 C   0  0
    3.0459  -19.6225    0.0000 N   0  0
    1.6270  -20.1114    0.0000 C   0  0
    1.3380  -21.5834    0.0000 C   0  0
   -0.0812  -22.0691    0.0000 C   0  0
   -1.2115  -21.0830    0.0000 C   0  0
   -2.6314  -21.5690    0.0000 C   0  0
   -4.0506  -22.0548    0.0000 N   0  0
   -0.9226  -19.6111    0.0000 C   0  0
   -2.0528  -18.6249    0.0000 Cl  0  0
    0.4966  -19.1253    0.0000 C   0  0
    3.3329  -18.1494    0.0000 C   0  0  1  0  0  0
    4.7504  -17.6587    0.0000 C   0  0
    5.0342  -16.1858    0.0000 C   0  0
    3.9005  -15.2034    0.0000 C   0  0  2  0  0  0
    4.1874  -13.7303    0.0000 N   0  0
    5.6064  -13.2413    0.0000 C   0  0
    6.7383  -14.2255    0.0000 O   0  0
    5.8933  -11.7682    0.0000 C   0  0
    7.3108  -11.2775    0.0000 C   0  0
    7.5945   -9.8045    0.0000 C   0  0
    6.4689   -8.8308    0.0000 C   0  0
    6.4765   -7.3301    0.0000 N   0  0
    7.5425   -6.2749    0.0000 C   0  0
    6.4870   -5.2605    0.0000 C   0  0
    6.4915   -3.7597    0.0000 C   0  0
    5.1945   -3.0045    0.0000 N   0  0
    5.1969   -1.5045    0.0000 C   0  0
    3.8991   -0.7525    0.0000 C   0  0
    2.5987   -1.5004    0.0000 N   0  0
    1.2990   -0.7500    0.0000 C   0  0
    1.2990    0.7500    0.0000 C   0  0
    0.0000    1.5000    0.0000 C   0  0
   -1.2990    0.7500    0.0000 C   0  0
   -1.2990   -0.7500    0.0000 C   0  0
    0.0000   -1.5000    0.0000 C   0  0
   -2.7248   -1.2135    0.0000 C   0  0
   -3.1882   -2.6402    0.0000 O   0  0
   -3.6065    0.0000    0.0000 N   0  0
   -5.1072    0.0000    0.0000 C   0  0  3  0  0  0
   -5.7538    1.3554    0.0000 C   0  0
   -7.2496    1.4682    0.0000 C   0  0
   -8.0952    0.2293    0.0000 C   0  0
   -9.5909    0.3422    0.0000 O   0  0
   -7.4450   -1.1225    0.0000 N   0  0
   -5.9493   -1.2353    0.0000 C   0  0
   -5.2987   -2.5869    0.0000 O   0  0
   -2.7248    1.2135    0.0000 C   0  0
   -3.1882    2.6401    0.0000 O   0  0
    2.5965   -3.0004    0.0000 C   0  0
    3.8943   -3.7525    0.0000 C   0  0
    5.4212   -6.2641    0.0000 C   0  0
    5.0433   -9.3131    0.0000 C   0  0
    4.7596  -10.7860    0.0000 C   0  0
    2.4830  -15.6942    0.0000 C   0  0
    2.1992  -17.1671    0.0000 C   0  0
  1  2  1  0
  2  3  1  0
  3  4  2  0
  4  5  1  0
  5  6  2  0
  6  7  1  0
  7  8  3  0
  6  9  1  0
  9 10  1  0
  9 11  2  0
 11  3  1  0
 12  2  1  6
 12 13  1  0
 13 14  1  0
 14 15  1  0
 15 16  1  1
 16 17  1  0
 17 18  2  0
 17 19  1  0
 19 20  2  0
 20 21  1  0
 21 22  2  0
 22 23  1  0
 23 24  1  0
 24 25  1  0
 25 26  1  0
 26 27  1  0
 27 28  1  0
 28 29  1  0
 29 30  1  0
 30 31  1  0
 31 32  2  0
 32 33  1  0
 33 34  2  0
 34 35  1  0
 35 36  2  0
 36 31  1  0
 35 37  1  0
 37 38  2  0
 37 39  1  0
 40 39  1  4
 40 41  1  0
 41 42  1  0
 42 43  1  0
 43 44  2  0
 43 45  1  0
 45 46  1  0
 46 40  1  0
 46 47  2  0
 39 48  1  0
 48 34  1  0
 48 49  2  0
 30 50  1  0
 50 51  1  0
 51 27  1  0
 25 52  1  0
 52 23  1  0
 22 53  1  0
 53 54  2  0
 54 19  1  0
 15 55  1  0
 55 56  1  0
 56 12  1  0
M  END
> <assay_chembl_id>
CHEMBL4844615

> <assay_description>
Growth inhibition of human LNCaP cells carrying AR T878A mutant assessed as cell viability by WST-8 assay

> <document_journal>
J Med Chem

> <molecule_chembl_id>
CHEMBL4849497

> <standard_value>
11.6

> <IC50_uM>
0.0116

> <Activity>
Yes

> <Canonical_Smiles>
CN(c1ccc(C#N)c(Cl)c1)[C@H]1CC[C@H](NC(=O)c2ccc(N3CC(CN4CCN(c5ccc6c(c5)C(=O)N(C5CCC(=O)NC5=O)C6=O)CC4)C3)cc2)CC1

$$$$

  SciTegic03142313312D

 55 62  0  0  1  0            999 V2000
   18.6472  -13.4066    0.0000 C   0  0
   17.2298  -13.8975    0.0000 N   0  0
   16.9466  -15.3714    0.0000 C   0  0
   18.0787  -16.3554    0.0000 C   0  0
   17.7926  -17.8279    0.0000 C   0  0
   16.3744  -18.3164    0.0000 C   0  0
   16.0882  -19.7897    0.0000 C   0  0
   15.8021  -21.2622    0.0000 N   0  0
   15.2422  -17.3324    0.0000 C   0  0
   13.8240  -17.8209    0.0000 Cl  0  0
   15.5283  -15.8600    0.0000 C   0  0
   16.0956  -12.9146    0.0000 C   0  0  1  0  0  0
   16.3766  -11.4411    0.0000 C   0  0
   15.2410  -10.4611    0.0000 C   0  0
   13.8244  -10.9544    0.0000 C   0  0  2  0  0  0
   12.6902   -9.9715    0.0000 N   0  0
   12.9734   -8.4977    0.0000 C   0  0
   14.3908   -8.0067    0.0000 O   0  0
   11.8392   -7.5148    0.0000 C   0  0
   12.1201   -6.0413    0.0000 C   0  0
   10.9845   -5.0613    0.0000 C   0  0
    9.5794   -5.5520    0.0000 C   0  0
    8.2821   -4.7975    0.0000 N   0  0
    7.8985   -3.3474    0.0000 C   0  0
    6.4930   -3.7570    0.0000 C   0  0
    5.1945   -3.0045    0.0000 N   0  0
    5.1969   -1.5045    0.0000 C   0  0
    3.8991   -0.7525    0.0000 C   0  0
    2.5987   -1.5004    0.0000 N   0  0
    1.2990   -0.7500    0.0000 C   0  0
    1.2990    0.7500    0.0000 C   0  0
    0.0000    1.5000    0.0000 C   0  0
   -1.2990    0.7500    0.0000 C   0  0
   -1.2990   -0.7500    0.0000 C   0  0
    0.0000   -1.5000    0.0000 C   0  0
   -2.7248   -1.2135    0.0000 C   0  0
   -3.1882   -2.6402    0.0000 O   0  0
   -3.6065    0.0000    0.0000 N   0  0
   -5.1072    0.0000    0.0000 C   0  0  3  0  0  0
   -5.7538    1.3554    0.0000 C   0  0
   -7.2496    1.4682    0.0000 C   0  0
   -8.0952    0.2293    0.0000 C   0  0
   -9.5909    0.3422    0.0000 O   0  0
   -7.4450   -1.1225    0.0000 N   0  0
   -5.9493   -1.2353    0.0000 C   0  0
   -5.2987   -2.5869    0.0000 O   0  0
   -2.7248    1.2135    0.0000 C   0  0
   -3.1882    2.6401    0.0000 O   0  0
    2.5965   -3.0004    0.0000 C   0  0
    3.8943   -3.7525    0.0000 C   0  0
    6.8320   -5.1811    0.0000 C   0  0
    9.2871   -7.0282    0.0000 C   0  0
   10.4227   -8.0082    0.0000 C   0  0
   13.5435  -12.4279    0.0000 C   0  0
   14.6791  -13.4080    0.0000 C   0  0
  1  2  1  0
  2  3  1  0
  3  4  2  0
  4  5  1  0
  5  6  2  0
  6  7  1  0
  7  8  3  0
  6  9  1  0
  9 10  1  0
  9 11  2  0
 11  3  1  0
 12  2  1  6
 12 13  1  0
 13 14  1  0
 14 15  1  0
 15 16  1  1
 16 17  1  0
 17 18  2  0
 17 19  1  0
 19 20  2  0
 20 21  1  0
 21 22  2  0
 22 23  1  0
 23 24  1  0
 24 25  1  0
 25 26  1  0
 26 27  1  0
 27 28  1  0
 28 29  1  0
 29 30  1  0
 30 31  2  0
 31 32  1  0
 32 33  2  0
 33 34  1  0
 34 35  2  0
 35 30  1  0
 34 36  1  0
 36 37  2  0
 36 38  1  0
 39 38  1  4
 39 40  1  0
 40 41  1  0
 41 42  1  0
 42 43  2  0
 42 44  1  0
 44 45  1  0
 45 39  1  0
 45 46  2  0
 38 47  1  0
 47 33  1  0
 47 48  2  0
 29 49  1  0
 49 50  1  0
 50 26  1  0
 25 51  1  0
 51 23  1  0
 22 52  1  0
 52 53  2  0
 53 19  1  0
 15 54  1  0
 54 55  1  0
 55 12  1  0
M  END
> <assay_chembl_id>
CHEMBL4844615

> <assay_description>
Growth inhibition of human LNCaP cells carrying AR T878A mutant assessed as cell viability by WST-8 assay

> <document_journal>
J Med Chem

> <molecule_chembl_id>
CHEMBL4872965

> <standard_value>
21.7

> <IC50_uM>
0.0217

> <Activity>
Yes

> <Canonical_Smiles>
CN(c1ccc(C#N)c(Cl)c1)[C@H]1CC[C@H](NC(=O)c2ccc(N3CC(N4CCN(c5ccc6c(c5)C(=O)N(C5CCC(=O)NC5=O)C6=O)CC4)C3)cc2)CC1

$$$$

  SciTegic03142313312D

 16 16  0  0  0  0            999 V2000
    6.4983   -0.7414    0.0000 C   0  0
    5.2003   -1.4932    0.0000 C   0  0
    3.8990   -0.7455    0.0000 C   0  0
    2.6003   -1.4977    0.0000 N   0  0
    2.6060   -2.9986    0.0000 C   0  0
    3.9082   -3.7449    0.0000 C   0  0
    3.9139   -5.2448    0.0000 C   0  0
    1.2990   -0.7500    0.0000 C   0  0
    1.2990    0.7500    0.0000 C   0  0
    0.0000    1.5000    0.0000 C   0  0
   -1.2990    0.7500    0.0000 C   0  0
   -2.6003    1.4977    0.0000 C   0  0
   -3.8983    0.7459    0.0000 O   0  0
   -1.2990   -0.7500    0.0000 C   0  0
    0.0000   -1.5000    0.0000 C   0  0
    0.0000   -3.0000    0.0000 Br  0  0
  1  2  1  0
  2  3  1  0
  3  4  1  0
  4  5  1  0
  5  6  1  0
  6  7  1  0
  4  8  1  0
  8  9  2  0
  9 10  1  0
 10 11  2  0
 11 12  1  0
 12 13  2  0
 11 14  1  0
 14 15  2  0
 15  8  1  0
 15 16  1  0
M  END
> <assay_chembl_id>
CHEMBL5049247

> <assay_description>
Antiproliferative activity against human LNCaP cells expressing ALDH1A3 assessed as reduction in cell survival measured after 96 hrs by MTT assay

> <document_journal>
J Med Chem

> <molecule_chembl_id>
CHEMBL5083058

> <standard_value>
25000

> <IC50_uM>
25

> <Activity>
No

> <Canonical_Smiles>
CCCN(CCC)c1ccc(C=O)cc1Br

$$$$

  SciTegic03142313312D

 18 18  0  0  0  0            999 V2000
    6.4983   -0.7414    0.0000 C   0  0
    5.2003   -1.4932    0.0000 C   0  0
    3.8990   -0.7455    0.0000 C   0  0
    2.6003   -1.4977    0.0000 N   0  0
    2.6060   -2.9986    0.0000 C   0  0
    3.9082   -3.7449    0.0000 C   0  0
    3.9139   -5.2448    0.0000 C   0  0
    1.2990   -0.7500    0.0000 C   0  0
    1.2990    0.7500    0.0000 C   0  0
    0.0000    1.5000    0.0000 C   0  0
   -1.2990    0.7500    0.0000 C   0  0
   -2.6003    1.4977    0.0000 C   0  0
   -3.8983    0.7459    0.0000 O   0  0
   -1.2990   -0.7500    0.0000 C   0  0
    0.0000   -1.5000    0.0000 C   0  0
   -0.0031   -3.0008    0.0000 N   0  3
   -1.3032   -3.7490    0.0000 O   0  0
    1.2947   -3.7531    0.0000 O   0  5
  1  2  1  0
  2  3  1  0
  3  4  1  0
  4  5  1  0
  5  6  1  0
  6  7  1  0
  4  8  1  0
  8  9  2  0
  9 10  1  0
 10 11  2  0
 11 12  1  0
 12 13  2  0
 11 14  1  0
 14 15  2  0
 15  8  1  0
 15 16  1  0
 16 17  2  0
 16 18  1  0
M  CHG  2  16   1  18  -1
M  END
> <assay_chembl_id>
CHEMBL5049247

> <assay_description>
Antiproliferative activity against human LNCaP cells expressing ALDH1A3 assessed as reduction in cell survival measured after 96 hrs by MTT assay

> <document_journal>
J Med Chem

> <molecule_chembl_id>
CHEMBL5082977

> <standard_value>
31000

> <IC50_uM>
31

> <Activity>
No

> <Canonical_Smiles>
CCCN(CCC)c1ccc(C=O)cc1[N+](=O)[O-]

$$$$

  SciTegic03142313312D

 15 16  0  0  0  0            999 V2000
    2.5951   -3.0031    0.0000 O   0  0
    2.5973   -1.5031    0.0000 C   0  0
    1.2990   -0.7500    0.0000 C   0  0
    1.2990    0.7500    0.0000 C   0  0
    0.0000    1.5000    0.0000 C   0  0
   -1.2990    0.7500    0.0000 C   0  0
   -2.5987    1.5004    0.0000 N   0  0
   -2.6012    3.0004    0.0000 C   0  0
   -3.9015    3.7484    0.0000 C   0  0
   -5.1993    2.9963    0.0000 C   0  0
   -5.1969    1.4963    0.0000 C   0  0
   -3.8967    0.7484    0.0000 C   0  0
   -1.2990   -0.7500    0.0000 C   0  0
   -2.5981   -1.5000    0.0000 Cl  0  0
    0.0000   -1.5000    0.0000 C   0  0
  1  2  2  0
  2  3  1  0
  3  4  2  0
  4  5  1  0
  5  6  2  0
  6  7  1  0
  7  8  1  0
  8  9  1  0
  9 10  1  0
 10 11  1  0
 11 12  1  0
 12  7  1  0
  6 13  1  0
 13 14  1  0
 13 15  2  0
 15  3  1  0
M  END
> <assay_chembl_id>
CHEMBL5049247

> <assay_description>
Antiproliferative activity against human LNCaP cells expressing ALDH1A3 assessed as reduction in cell survival measured after 96 hrs by MTT assay

> <document_journal>
J Med Chem

> <molecule_chembl_id>
CHEMBL5093639

> <standard_value>
37000

> <IC50_uM>
37

> <Activity>
No

> <Canonical_Smiles>
O=Cc1ccc(N2CCCCC2)c(Cl)c1

$$$$

  SciTegic03142313312D

 15 16  0  0  0  0            999 V2000
    2.5951   -3.0031    0.0000 O   0  0
    2.5973   -1.5031    0.0000 C   0  0
    1.2990   -0.7500    0.0000 C   0  0
    1.2990    0.7500    0.0000 C   0  0
    0.0000    1.5000    0.0000 C   0  0
   -1.2990    0.7500    0.0000 C   0  0
   -2.5987    1.5004    0.0000 N   0  0
   -2.6012    3.0004    0.0000 C   0  0
   -3.9015    3.7484    0.0000 C   0  0
   -5.1993    2.9963    0.0000 C   0  0
   -5.1969    1.4963    0.0000 C   0  0
   -3.8967    0.7484    0.0000 C   0  0
   -1.2990   -0.7500    0.0000 C   0  0
   -2.5981   -1.5000    0.0000 Br  0  0
    0.0000   -1.5000    0.0000 C   0  0
  1  2  2  0
  2  3  1  0
  3  4  2  0
  4  5  1  0
  5  6  2  0
  6  7  1  0
  7  8  1  0
  8  9  1  0
  9 10  1  0
 10 11  1  0
 11 12  1  0
 12  7  1  0
  6 13  1  0
 13 14  1  0
 13 15  2  0
 15  3  1  0
M  END
> <assay_chembl_id>
CHEMBL5049247

> <assay_description>
Antiproliferative activity against human LNCaP cells expressing ALDH1A3 assessed as reduction in cell survival measured after 96 hrs by MTT assay

> <document_journal>
J Med Chem

> <molecule_chembl_id>
CHEMBL5086855

> <standard_value>
46000

> <IC50_uM>
46

> <Activity>
No

> <Canonical_Smiles>
O=Cc1ccc(N2CCCCC2)c(Br)c1

$$$$

  SciTegic03142313312D

 14 14  0  0  0  0            999 V2000
    5.1996   -1.4928    0.0000 C   0  0
    3.8990   -0.7455    0.0000 C   0  0
    2.6003   -1.4977    0.0000 N   0  0
    2.6060   -2.9986    0.0000 C   0  0
    3.9075   -3.7444    0.0000 C   0  0
    1.2990   -0.7500    0.0000 C   0  0
    1.2990    0.7500    0.0000 C   0  0
    0.0000    1.5000    0.0000 C   0  0
   -1.2990    0.7500    0.0000 C   0  0
   -2.6003    1.4977    0.0000 C   0  0
   -3.8983    0.7459    0.0000 O   0  0
   -1.2990   -0.7500    0.0000 C   0  0
    0.0000   -1.5000    0.0000 C   0  0
    0.0000   -3.0000    0.0000 Br  0  0
  1  2  1  0
  2  3  1  0
  3  4  1  0
  4  5  1  0
  3  6  1  0
  6  7  2  0
  7  8  1  0
  8  9  2  0
  9 10  1  0
 10 11  2  0
  9 12  1  0
 12 13  2  0
 13  6  1  0
 13 14  1  0
M  END
> <assay_chembl_id>
CHEMBL5049247

> <assay_description>
Antiproliferative activity against human LNCaP cells expressing ALDH1A3 assessed as reduction in cell survival measured after 96 hrs by MTT assay

> <document_journal>
J Med Chem

> <molecule_chembl_id>
CHEMBL5093580

> <standard_value>
47000

> <IC50_uM>
47

> <Activity>
No

> <Canonical_Smiles>
CCN(CC)c1ccc(C=O)cc1Br

$$$$

  SciTegic03142313312D

 17 17  0  0  0  0            999 V2000
    6.4983   -0.7414    0.0000 C   0  0
    5.2003   -1.4932    0.0000 C   0  0
    3.8990   -0.7455    0.0000 C   0  0
    2.6003   -1.4977    0.0000 N   0  0
    2.6060   -2.9986    0.0000 C   0  0
    3.9082   -3.7449    0.0000 C   0  0
    3.9139   -5.2448    0.0000 C   0  0
    1.2990   -0.7500    0.0000 C   0  0
    1.2990    0.7500    0.0000 C   0  0
    0.0000    1.5000    0.0000 C   0  0
   -1.2990    0.7500    0.0000 C   0  0
   -2.6003    1.4977    0.0000 C   0  0
   -3.8983    0.7459    0.0000 O   0  0
   -1.2990   -0.7500    0.0000 C   0  0
    0.0000   -1.5000    0.0000 C   0  0
   -0.0031   -3.0008    0.0000 O   0  0
   -1.3032   -3.7490    0.0000 C   0  0
  1  2  1  0
  2  3  1  0
  3  4  1  0
  4  5  1  0
  5  6  1  0
  6  7  1  0
  4  8  1  0
  8  9  2  0
  9 10  1  0
 10 11  2  0
 11 12  1  0
 12 13  2  0
 11 14  1  0
 14 15  2  0
 15  8  1  0
 15 16  1  0
 16 17  1  0
M  END
> <assay_chembl_id>
CHEMBL5049247

> <assay_description>
Antiproliferative activity against human LNCaP cells expressing ALDH1A3 assessed as reduction in cell survival measured after 96 hrs by MTT assay

> <document_journal>
J Med Chem

> <molecule_chembl_id>
CHEMBL5089352

> <standard_value>
50000

> <IC50_uM>
50

> <Activity>
No

> <Canonical_Smiles>
CCCN(CCC)c1ccc(C=O)cc1OC

$$$$

  SciTegic03142313312D

 15 16  0  0  0  0            999 V2000
    2.5981   -1.5000    0.0000 C   0  0
    1.2990   -0.7500    0.0000 C   0  0
    1.2990    0.7500    0.0000 C   0  0
    0.0000    1.5000    0.0000 C   0  0
   -0.0031    3.0008    0.0000 C   0  0
   -1.3032    3.7490    0.0000 O   0  0
   -1.2990    0.7500    0.0000 C   0  0
   -1.2990   -0.7500    0.0000 C   0  0
    0.0000   -1.5000    0.0000 C   0  0
    0.0000   -3.0008    0.0000 N   0  0
   -1.2978   -3.7529    0.0000 C   0  0
   -1.2955   -5.2529    0.0000 C   0  0
    0.0048   -6.0009    0.0000 C   0  0
    1.3026   -5.2488    0.0000 C   0  0
    1.3002   -3.7488    0.0000 C   0  0
  1  2  1  0
  2  3  2  0
  3  4  1  0
  4  5  1  0
  5  6  2  0
  4  7  2  0
  7  8  1  0
  8  9  2  0
  9  2  1  0
  9 10  1  0
 10 11  1  0
 11 12  1  0
 12 13  1  0
 13 14  1  0
 14 15  1  0
 15 10  1  0
M  END
> <assay_chembl_id>
CHEMBL5049247

> <assay_description>
Antiproliferative activity against human LNCaP cells expressing ALDH1A3 assessed as reduction in cell survival measured after 96 hrs by MTT assay

> <document_journal>
J Med Chem

> <molecule_chembl_id>
CHEMBL5086460

> <standard_value>
61000

> <IC50_uM>
61

> <Activity>
No

> <Canonical_Smiles>
Cc1cc(C=O)ccc1N1CCCCC1

$$$$

  SciTegic03142313312D

 16 16  0  0  0  0            999 V2000
    6.4983   -0.7414    0.0000 C   0  0
    5.2003   -1.4932    0.0000 C   0  0
    3.8990   -0.7455    0.0000 C   0  0
    2.6003   -1.4977    0.0000 N   0  0
    2.6060   -2.9986    0.0000 C   0  0
    3.9082   -3.7449    0.0000 C   0  0
    3.9139   -5.2448    0.0000 C   0  0
    1.2990   -0.7500    0.0000 C   0  0
    1.2990    0.7500    0.0000 C   0  0
    0.0000    1.5000    0.0000 C   0  0
   -1.2990    0.7500    0.0000 C   0  0
   -2.6003    1.4977    0.0000 C   0  0
   -3.8983    0.7459    0.0000 O   0  0
   -1.2990   -0.7500    0.0000 C   0  0
    0.0000   -1.5000    0.0000 C   0  0
    0.0000   -3.0000    0.0000 C   0  0
  1  2  1  0
  2  3  1  0
  3  4  1  0
  4  5  1  0
  5  6  1  0
  6  7  1  0
  4  8  1  0
  8  9  2  0
  9 10  1  0
 10 11  2  0
 11 12  1  0
 12 13  2  0
 11 14  1  0
 14 15  2  0
 15  8  1  0
 15 16  1  0
M  END
> <assay_chembl_id>
CHEMBL5049247

> <assay_description>
Antiproliferative activity against human LNCaP cells expressing ALDH1A3 assessed as reduction in cell survival measured after 96 hrs by MTT assay

> <document_journal>
J Med Chem

> <molecule_chembl_id>
CHEMBL5088513

> <standard_value>
61000

> <IC50_uM>
61

> <Activity>
No

> <Canonical_Smiles>
CCCN(CCC)c1ccc(C=O)cc1C

$$$$

  SciTegic03142313312D

 15 15  0  0  0  0            999 V2000
    3.8912   -5.2570    0.0000 C   0  0
    3.8933   -3.7570    0.0000 C   0  0
    2.5951   -3.0039    0.0000 C   0  0
    2.5973   -1.5031    0.0000 N   0  0
    3.8999   -0.7576    0.0000 C   0  0
    5.1972   -1.5121    0.0000 C   0  0
    6.4991   -0.7671    0.0000 C   0  0
    1.2990   -0.7500    0.0000 C   0  0
    1.2990    0.7500    0.0000 C   0  0
    0.0000    1.5000    0.0000 C   0  0
   -1.2990    0.7500    0.0000 C   0  0
   -2.6003    1.4977    0.0000 C   0  0
   -3.8983    0.7459    0.0000 O   0  0
   -1.2990   -0.7500    0.0000 C   0  0
    0.0000   -1.5000    0.0000 C   0  0
  1  2  1  0
  2  3  1  0
  3  4  1  0
  4  5  1  0
  5  6  1  0
  6  7  1  0
  4  8  1  0
  8  9  2  0
  9 10  1  0
 10 11  2  0
 11 12  1  0
 12 13  2  0
 11 14  1  0
 14 15  2  0
 15  8  1  0
M  END
> <assay_chembl_id>
CHEMBL5049247

> <assay_description>
Antiproliferative activity against human LNCaP cells expressing ALDH1A3 assessed as reduction in cell survival measured after 96 hrs by MTT assay

> <document_journal>
J Med Chem

> <molecule_chembl_id>
CHEMBL5082115

> <standard_value>
73000

> <IC50_uM>
73

> <Activity>
No

> <Canonical_Smiles>
CCCN(CCC)c1ccc(C=O)cc1

$$$$

  SciTegic03142313312D

 15 16  0  0  0  0            999 V2000
    2.5951   -3.0031    0.0000 O   0  0
    2.5973   -1.5031    0.0000 C   0  0
    1.2990   -0.7500    0.0000 C   0  0
    1.2990    0.7500    0.0000 C   0  0
    0.0000    1.5000    0.0000 C   0  0
   -1.2990    0.7500    0.0000 C   0  0
   -2.5987    1.5004    0.0000 N   0  0
   -2.6012    3.0004    0.0000 C   0  0
   -3.9015    3.7484    0.0000 C   0  0
   -5.1993    2.9963    0.0000 O   0  0
   -5.1969    1.4963    0.0000 C   0  0
   -3.8967    0.7484    0.0000 C   0  0
   -1.2990   -0.7500    0.0000 C   0  0
   -2.5981   -1.5000    0.0000 Br  0  0
    0.0000   -1.5000    0.0000 C   0  0
  1  2  2  0
  2  3  1  0
  3  4  2  0
  4  5  1  0
  5  6  2  0
  6  7  1  0
  7  8  1  0
  8  9  1  0
  9 10  1  0
 10 11  1  0
 11 12  1  0
 12  7  1  0
  6 13  1  0
 13 14  1  0
 13 15  2  0
 15  3  1  0
M  END
> <assay_chembl_id>
CHEMBL5049247

> <assay_description>
Antiproliferative activity against human LNCaP cells expressing ALDH1A3 assessed as reduction in cell survival measured after 96 hrs by MTT assay

> <document_journal>
J Med Chem

> <molecule_chembl_id>
CHEMBL5086212

> <standard_value>
82000

> <IC50_uM>
82

> <Activity>
No

> <Canonical_Smiles>
O=Cc1ccc(N2CCOCC2)c(Br)c1

$$$$

  SciTegic03142313312D

 16 17  0  0  0  0            999 V2000
    2.2473   -8.7521    0.0000 C   0  0
    3.1332   -7.5416    0.0000 C   0  0
    4.6332   -7.5468    0.0000 N   0  0
    5.1017   -6.1218    0.0000 N   0  0
    3.8912   -5.2578    0.0000 C   0  0
    3.8933   -3.7570    0.0000 S   0  0
    2.5951   -3.0039    0.0000 C   0  0
    2.5973   -1.5031    0.0000 C   0  0
    3.8976   -0.7553    0.0000 O   0  0
    1.2990   -0.7500    0.0000 C   0  0
    1.2990    0.7500    0.0000 C   0  0
    0.0000    1.5000    0.0000 C   0  0
   -1.2990    0.7500    0.0000 C   0  0
   -1.2990   -0.7500    0.0000 C   0  0
    0.0000   -1.5000    0.0000 C   0  0
    2.6747   -6.1134    0.0000 O   0  0
  1  2  1  0
  2  3  2  0
  3  4  1  0
  4  5  2  0
  5  6  1  0
  6  7  1  0
  7  8  1  0
  8  9  2  0
  8 10  1  0
 10 11  2  0
 11 12  1  0
 12 13  2  0
 13 14  1  0
 14 15  2  0
 15 10  1  0
  5 16  1  0
 16  2  1  0
M  END
> <assay_chembl_id>
CHEMBL5052974

> <assay_description>
Antiproliferative activity against human LNCaP cells after 4 hrs by CCK-8 assay

> <document_journal>
.

> <molecule_chembl_id>
CHEMBL5079937

> <standard_value>
34600

> <IC50_uM>
34.6

> <Activity>
No

> <Canonical_Smiles>
Cc1nnc(SCC(=O)c2ccccc2)o1

$$$$

  SciTegic03142313312D

 16 17  0  0  0  0            999 V2000
    2.2473   -8.7521    0.0000 C   0  0
    3.1332   -7.5416    0.0000 C   0  0
    4.6332   -7.5468    0.0000 N   0  0
    5.1017   -6.1218    0.0000 N   0  0
    3.8912   -5.2578    0.0000 C   0  0
    3.8933   -3.7570    0.0000 N   0  0
    2.5951   -3.0039    0.0000 C   0  0
    2.5973   -1.5031    0.0000 C   0  0
    3.8976   -0.7553    0.0000 O   0  0
    1.2990   -0.7500    0.0000 C   0  0
    1.2990    0.7500    0.0000 C   0  0
    0.0000    1.5000    0.0000 C   0  0
   -1.2990    0.7500    0.0000 C   0  0
   -1.2990   -0.7500    0.0000 C   0  0
    0.0000   -1.5000    0.0000 C   0  0
    2.6747   -6.1134    0.0000 S   0  0
  1  2  1  0
  2  3  2  0
  3  4  1  0
  4  5  2  0
  5  6  1  0
  6  7  1  0
  7  8  1  0
  8  9  2  0
  8 10  1  0
 10 11  2  0
 11 12  1  0
 12 13  2  0
 13 14  1  0
 14 15  2  0
 15 10  1  0
  5 16  1  0
 16  2  1  0
M  END
> <assay_chembl_id>
CHEMBL5052974

> <assay_description>
Antiproliferative activity against human LNCaP cells after 4 hrs by CCK-8 assay

> <document_journal>
.

> <molecule_chembl_id>
CHEMBL5094989

> <standard_value>
34600

> <IC50_uM>
34.6

> <Activity>
No

> <Canonical_Smiles>
Cc1nnc(NCC(=O)c2ccccc2)s1

$$$$

  SciTegic03142313312D

 16 17  0  0  0  0            999 V2000
    6.0162   -7.4132    0.0000 C   0  0
    4.5250   -7.2514    0.0000 C   0  0
    3.6396   -8.4623    0.0000 O   0  0
    3.9195   -5.8781    0.0000 C   0  0
    4.8054   -4.6666    0.0000 S   0  0
    4.2010   -3.2956    0.0000 C   0  0
    4.9531   -1.9978    0.0000 N   0  0
    3.9511   -0.8815    0.0000 N   0  0
    2.5987   -1.5004    0.0000 C   0  0
    1.2990   -0.7500    0.0000 C   0  0
    1.2990    0.7500    0.0000 C   0  0
    0.0000    1.5000    0.0000 C   0  0
   -1.2990    0.7500    0.0000 C   0  0
   -1.2990   -0.7500    0.0000 N   0  0
    0.0000   -1.5000    0.0000 C   0  0
    2.7343   -2.9815    0.0000 O   0  0
  1  2  1  0
  2  3  2  0
  2  4  1  0
  4  5  1  0
  5  6  1  0
  6  7  2  0
  7  8  1  0
  8  9  2  0
  9 10  1  0
 10 11  2  0
 11 12  1  0
 12 13  2  0
 13 14  1  0
 14 15  2  0
 15 10  1  0
  9 16  1  0
 16  6  1  0
M  END
> <assay_chembl_id>
CHEMBL5052974

> <assay_description>
Antiproliferative activity against human LNCaP cells after 4 hrs by CCK-8 assay

> <document_journal>
.

> <molecule_chembl_id>
CHEMBL5082772

> <standard_value>
34600

> <IC50_uM>
34.6

> <Activity>
No

> <Canonical_Smiles>
CC(=O)CSc1nnc(-c2cccnc2)o1

$$$$

  SciTegic03142313312D

 21 23  0  0  0  0            999 V2000
    6.0162   -7.4132    0.0000 O   0  0
    4.5250   -7.2514    0.0000 C   0  0
    3.9195   -5.8781    0.0000 C   0  0
    4.8054   -4.6666    0.0000 S   0  0
    4.2010   -3.2956    0.0000 C   0  0
    4.9531   -1.9978    0.0000 N   0  0
    3.9511   -0.8815    0.0000 N   0  0
    2.5987   -1.5004    0.0000 C   0  0
    1.2990   -0.7500    0.0000 C   0  0
    1.2990    0.7500    0.0000 C   0  0
    0.0000    1.5000    0.0000 C   0  0
   -1.2990    0.7500    0.0000 N   0  0
   -1.2990   -0.7500    0.0000 C   0  0
    0.0000   -1.5000    0.0000 C   0  0
    2.7343   -2.9815    0.0000 O   0  0
    3.6391   -8.4629    0.0000 C   0  0
    4.2422   -9.8364    0.0000 C   0  0
    3.3544  -11.0454    0.0000 C   0  0
    1.8634  -10.8811    0.0000 C   0  0
    1.2603   -9.5077    0.0000 C   0  0
    2.1481   -8.2986    0.0000 C   0  0
  1  2  2  0
  2  3  1  0
  3  4  1  0
  4  5  1  0
  5  6  2  0
  6  7  1  0
  7  8  2  0
  8  9  1  0
  9 10  2  0
 10 11  1  0
 11 12  2  0
 12 13  1  0
 13 14  2  0
 14  9  1  0
  8 15  1  0
 15  5  1  0
  2 16  1  0
 16 17  2  0
 17 18  1  0
 18 19  2  0
 19 20  1  0
 20 21  2  0
 21 16  1  0
M  END
> <assay_chembl_id>
CHEMBL5052974

> <assay_description>
Antiproliferative activity against human LNCaP cells after 4 hrs by CCK-8 assay

> <document_journal>
.

> <molecule_chembl_id>
CHEMBL2035238

> <standard_value>
34600

> <IC50_uM>
34.6

> <Activity>
No

> <Canonical_Smiles>
O=C(CSc1nnc(-c2ccncc2)o1)c1ccccc1

$$$$
